!  Floats Input Parameters.
!
!svn $Id: floats_flt_test3d.in 889 2018-02-10 03:32:52Z arango $
!========================================================= Hernan G. Arango ===
!  Copyright (c) 2002-2019 The ROMS/TOMS Group                                !
!    Licensed under a MIT/X style license                                     !
!    See License_ROMS.txt                                                     !
!==============================================================================
!                                                                             !
! Input parameters can be entered in ANY order, provided that the parameter   !
! KEYWORD (usually, upper case) is typed correctly followed by "="  or "=="   !
! symbols. Any comment lines are allowed and must begin with an exclamation   !
! mark (!) in column one.  Comments may  appear to the right of a parameter   !
! specification to improve documentation.  Comments will be ignored  during   !
! reading.  Blank lines are also allowed and ignored. Continuation lines in   !
! a parameter specification are allowed and must be preceded by a backslash   !
! (\).  In some instances, more than one value is required for a parameter.   !
! If fewer values are provided, the  last value  is assigned for the entire   !
! parameter array.  The multiplication symbol (*),  without blank spaces in   !
! between, is allowed for a parameter specification.  For example, in a two   !
! grids nested application:                                                   !
!                                                                             !
!    AKT_BAK == 2*1.0d-6  2*5.0d-6              ! m2/s                        !
!                                                                             !
! indicates that the first two entries of array AKT_BAK,  in fortran column-  !
! major order, will have the same value of "1.0d-6" for grid 1,  whereas the  !
! next two entries will have the same value of "5.0d-6" for grid 2.           !
!                                                                             !
! In multiple levels of nesting and/or multiple connected domains  step-ups,  !
! "Ngrids" entries are expected for some of these parameters.  In such case,  !
! the order of the entries for a parameter is extremely important.  It  must  !
! follow the same order (1:Ngrids) as in the state variable declaration. The  !
! USER may follow the above guidelines for specifying his/her values.  These  !
! parameters are marked by "==" plural symbol after the KEYWORD.              !
!                                                                             !
!==============================================================================
!
! Switch to control the computation of floats trajectories within nested
! and/or multiple connected grids, [1:Ngrids].
!
     Lfloats == T

! Switch to control the printing of floats initial positions to standard
! output file, [1:Ngrids].
!
      Fprint == T

! Flag indicating re-start from previous solution. If FRREC = 0, a new
! NetCDF output file is created.

       FRREC == 0

! If applicable, input script file name containing biological floats behavior
! model parameters.

     FBIONAM =  behavior_oyster.in

! Number of floats to release in each nested grid.  These values are
! essential because the FLOATS structure in "mod_floats" is dynamically
! allocated using these values, [1:Ngrids].

     NFLOATS == 25000

! Initial floats locations for all grids:
!
!   G      Nested grid number
!   C      Initial horizontal coordinate type (0: grid units, 1: spherical)
!   T      Float trajectory type (1: Lagrangian, 2: isobaric, 3: Geopotential)
!   N      Number floats to be released at (Fx0,Fy0,Fz0)
!   Ft0    Float release time (days) after model initialization
!   Fx0    Initial float X-location (grid units or longitude)
!   Fy0    Initial float Y-location (grid units or latitude)
!   Fz0    Initial float Z-location (grid units or depth)
!   Fdt    Float cluster release time interval (days)
!   Fdx    Float cluster X-distribution parameter
!   Fdy    Float cluster Y-distribution parameter
!   Fdz    Float cluster Z-distribution parameter

POS = G, C, T, N,   Ft0,    Fx0,    Fy0,    Fz0,    Fdt,    Fdx,    Fdy,   Fdz

      1  1  1  1   0.5d0    0.091d0    0.000d0   0.d0   0.d0   0.d0   0.d0   0.d0 
      1  1  1  1   0.5d0    0.091d0    0.002d0   0.d0   0.d0   0.d0   0.d0   0.d0 
      1  1  1  1   0.5d0    0.091d0    0.005d0   0.d0   0.d0   0.d0   0.d0   0.d0 
      1  1  1  1   0.5d0    0.091d0    0.007d0   0.d0   0.d0   0.d0   0.d0   0.d0 
      1  1  1  1   0.5d0    0.091d0    0.009d0   0.d0   0.d0   0.d0   0.d0   0.d0 
      1  1  1  1   0.5d0    0.090d0    0.011d0   0.d0   0.d0   0.d0   0.d0   0.d0 
      1  1  1  1   0.5d0    0.090d0    0.014d0   0.d0   0.d0   0.d0   0.d0   0.d0 
      1  1  1  1   0.5d0    0.090d0    0.016d0   0.d0   0.d0   0.d0   0.d0   0.d0 
      1  1  1  1   0.5d0    0.089d0    0.018d0   0.d0   0.d0   0.d0   0.d0   0.d0 
      1  1  1  1   0.5d0    0.089d0    0.020d0   0.d0   0.d0   0.d0   0.d0   0.d0 
      1  1  1  1   0.5d0    0.088d0    0.023d0   0.d0   0.d0   0.d0   0.d0   0.d0 
      1  1  1  1   0.5d0    0.088d0    0.025d0   0.d0   0.d0   0.d0   0.d0   0.d0 
      1  1  1  1   0.5d0    0.087d0    0.027d0   0.d0   0.d0   0.d0   0.d0   0.d0 
      1  1  1  1   0.5d0    0.086d0    0.029d0   0.d0   0.d0   0.d0   0.d0   0.d0 
      1  1  1  1   0.5d0    0.085d0    0.031d0   0.d0   0.d0   0.d0   0.d0   0.d0 
      1  1  1  1   0.5d0    0.085d0    0.034d0   0.d0   0.d0   0.d0   0.d0   0.d0 
      1  1  1  1   0.5d0    0.084d0    0.036d0   0.d0   0.d0   0.d0   0.d0   0.d0 
      1  1  1  1   0.5d0    0.083d0    0.038d0   0.d0   0.d0   0.d0   0.d0   0.d0 
      1  1  1  1   0.5d0    0.082d0    0.040d0   0.d0   0.d0   0.d0   0.d0   0.d0 
      1  1  1  1   0.5d0    0.081d0    0.042d0   0.d0   0.d0   0.d0   0.d0   0.d0 
      1  1  1  1   0.5d0    0.080d0    0.044d0   0.d0   0.d0   0.d0   0.d0   0.d0 
      1  1  1  1   0.5d0    0.079d0    0.046d0   0.d0   0.d0   0.d0   0.d0   0.d0 
      1  1  1  1   0.5d0    0.077d0    0.048d0   0.d0   0.d0   0.d0   0.d0   0.d0 
      1  1  1  1   0.5d0    0.076d0    0.050d0   0.d0   0.d0   0.d0   0.d0   0.d0 
      1  1  1  1   0.5d0    0.075d0    0.052d0   0.d0   0.d0   0.d0   0.d0   0.d0 
      1  1  1  1   0.5d0    0.073d0    0.054d0   0.d0   0.d0   0.d0   0.d0   0.d0 
      1  1  1  1   0.5d0    0.072d0    0.056d0   0.d0   0.d0   0.d0   0.d0   0.d0 
      1  1  1  1   0.5d0    0.071d0    0.057d0   0.d0   0.d0   0.d0   0.d0   0.d0 
      1  1  1  1   0.5d0    0.069d0    0.059d0   0.d0   0.d0   0.d0   0.d0   0.d0 
      1  1  1  1   0.5d0    0.068d0    0.061d0   0.d0   0.d0   0.d0   0.d0   0.d0 
      1  1  1  1   0.5d0    0.066d0    0.062d0   0.d0   0.d0   0.d0   0.d0   0.d0 
      1  1  1  1   0.5d0    0.065d0    0.064d0   0.d0   0.d0   0.d0   0.d0   0.d0 
      1  1  1  1   0.5d0    0.063d0    0.066d0   0.d0   0.d0   0.d0   0.d0   0.d0 
      1  1  1  1   0.5d0    0.061d0    0.067d0   0.d0   0.d0   0.d0   0.d0   0.d0 
      1  1  1  1   0.5d0    0.060d0    0.069d0   0.d0   0.d0   0.d0   0.d0   0.d0 
      1  1  1  1   0.5d0    0.058d0    0.070d0   0.d0   0.d0   0.d0   0.d0   0.d0 
      1  1  1  1   0.5d0    0.056d0    0.072d0   0.d0   0.d0   0.d0   0.d0   0.d0 
      1  1  1  1   0.5d0    0.054d0    0.073d0   0.d0   0.d0   0.d0   0.d0   0.d0 
      1  1  1  1   0.5d0    0.052d0    0.074d0   0.d0   0.d0   0.d0   0.d0   0.d0 
      1  1  1  1   0.5d0    0.050d0    0.076d0   0.d0   0.d0   0.d0   0.d0   0.d0 
      1  1  1  1   0.5d0    0.048d0    0.077d0   0.d0   0.d0   0.d0   0.d0   0.d0 
      1  1  1  1   0.5d0    0.046d0    0.078d0   0.d0   0.d0   0.d0   0.d0   0.d0 
      1  1  1  1   0.5d0    0.045d0    0.079d0   0.d0   0.d0   0.d0   0.d0   0.d0 
      1  1  1  1   0.5d0    0.042d0    0.080d0   0.d0   0.d0   0.d0   0.d0   0.d0 
      1  1  1  1   0.5d0    0.040d0    0.082d0   0.d0   0.d0   0.d0   0.d0   0.d0 
      1  1  1  1   0.5d0    0.038d0    0.083d0   0.d0   0.d0   0.d0   0.d0   0.d0 
      1  1  1  1   0.5d0    0.036d0    0.083d0   0.d0   0.d0   0.d0   0.d0   0.d0 
      1  1  1  1   0.5d0    0.034d0    0.084d0   0.d0   0.d0   0.d0   0.d0   0.d0 
      1  1  1  1   0.5d0    0.032d0    0.085d0   0.d0   0.d0   0.d0   0.d0   0.d0 
      1  1  1  1   0.5d0    0.030d0    0.086d0   0.d0   0.d0   0.d0   0.d0   0.d0 
      1  1  1  1   0.5d0    0.028d0    0.087d0   0.d0   0.d0   0.d0   0.d0   0.d0 
      1  1  1  1   0.5d0    0.025d0    0.087d0   0.d0   0.d0   0.d0   0.d0   0.d0 
      1  1  1  1   0.5d0    0.023d0    0.088d0   0.d0   0.d0   0.d0   0.d0   0.d0 
      1  1  1  1   0.5d0    0.021d0    0.089d0   0.d0   0.d0   0.d0   0.d0   0.d0 
      1  1  1  1   0.5d0    0.019d0    0.089d0   0.d0   0.d0   0.d0   0.d0   0.d0 
      1  1  1  1   0.5d0    0.017d0    0.089d0   0.d0   0.d0   0.d0   0.d0   0.d0 
      1  1  1  1   0.5d0    0.014d0    0.090d0   0.d0   0.d0   0.d0   0.d0   0.d0 
      1  1  1  1   0.5d0    0.012d0    0.090d0   0.d0   0.d0   0.d0   0.d0   0.d0 
      1  1  1  1   0.5d0    0.010d0    0.090d0   0.d0   0.d0   0.d0   0.d0   0.d0 
      1  1  1  1   0.5d0    0.007d0    0.091d0   0.d0   0.d0   0.d0   0.d0   0.d0 
      1  1  1  1   0.5d0    0.005d0    0.091d0   0.d0   0.d0   0.d0   0.d0   0.d0 
      1  1  1  1   0.5d0    0.003d0    0.091d0   0.d0   0.d0   0.d0   0.d0   0.d0 
      1  1  1  1   0.5d0    0.001d0    0.091d0   0.d0   0.d0   0.d0   0.d0   0.d0 
      1  1  1  1   0.5d0   -0.002d0    0.091d0   0.d0   0.d0   0.d0   0.d0   0.d0 
      1  1  1  1   0.5d0   -0.004d0    0.091d0   0.d0   0.d0   0.d0   0.d0   0.d0 
      1  1  1  1   0.5d0   -0.006d0    0.091d0   0.d0   0.d0   0.d0   0.d0   0.d0 
      1  1  1  1   0.5d0   -0.009d0    0.091d0   0.d0   0.d0   0.d0   0.d0   0.d0 
      1  1  1  1   0.5d0   -0.011d0    0.090d0   0.d0   0.d0   0.d0   0.d0   0.d0 
      1  1  1  1   0.5d0   -0.013d0    0.090d0   0.d0   0.d0   0.d0   0.d0   0.d0 
      1  1  1  1   0.5d0   -0.015d0    0.090d0   0.d0   0.d0   0.d0   0.d0   0.d0 
      1  1  1  1   0.5d0   -0.018d0    0.089d0   0.d0   0.d0   0.d0   0.d0   0.d0 
      1  1  1  1   0.5d0   -0.020d0    0.089d0   0.d0   0.d0   0.d0   0.d0   0.d0 
      1  1  1  1   0.5d0   -0.022d0    0.088d0   0.d0   0.d0   0.d0   0.d0   0.d0 
      1  1  1  1   0.5d0   -0.024d0    0.088d0   0.d0   0.d0   0.d0   0.d0   0.d0 
      1  1  1  1   0.5d0   -0.027d0    0.087d0   0.d0   0.d0   0.d0   0.d0   0.d0 
      1  1  1  1   0.5d0   -0.029d0    0.086d0   0.d0   0.d0   0.d0   0.d0   0.d0 
      1  1  1  1   0.5d0   -0.031d0    0.086d0   0.d0   0.d0   0.d0   0.d0   0.d0 
      1  1  1  1   0.5d0   -0.033d0    0.085d0   0.d0   0.d0   0.d0   0.d0   0.d0 
      1  1  1  1   0.5d0   -0.035d0    0.084d0   0.d0   0.d0   0.d0   0.d0   0.d0 
      1  1  1  1   0.5d0   -0.037d0    0.083d0   0.d0   0.d0   0.d0   0.d0   0.d0 
      1  1  1  1   0.5d0   -0.039d0    0.082d0   0.d0   0.d0   0.d0   0.d0   0.d0 
      1  1  1  1   0.5d0   -0.041d0    0.081d0   0.d0   0.d0   0.d0   0.d0   0.d0 
      1  1  1  1   0.5d0   -0.043d0    0.080d0   0.d0   0.d0   0.d0   0.d0   0.d0 
      1  1  1  1   0.5d0   -0.045d0    0.079d0   0.d0   0.d0   0.d0   0.d0   0.d0 
      1  1  1  1   0.5d0   -0.047d0    0.078d0   0.d0   0.d0   0.d0   0.d0   0.d0 
      1  1  1  1   0.5d0   -0.049d0    0.076d0   0.d0   0.d0   0.d0   0.d0   0.d0 
      1  1  1  1   0.5d0   -0.051d0    0.075d0   0.d0   0.d0   0.d0   0.d0   0.d0 
      1  1  1  1   0.5d0   -0.053d0    0.074d0   0.d0   0.d0   0.d0   0.d0   0.d0 
      1  1  1  1   0.5d0   -0.055d0    0.072d0   0.d0   0.d0   0.d0   0.d0   0.d0 
      1  1  1  1   0.5d0   -0.057d0    0.071d0   0.d0   0.d0   0.d0   0.d0   0.d0 
      1  1  1  1   0.5d0   -0.059d0    0.070d0   0.d0   0.d0   0.d0   0.d0   0.d0 
      1  1  1  1   0.5d0   -0.060d0    0.068d0   0.d0   0.d0   0.d0   0.d0   0.d0 
      1  1  1  1   0.5d0   -0.062d0    0.067d0   0.d0   0.d0   0.d0   0.d0   0.d0 
      1  1  1  1   0.5d0   -0.064d0    0.065d0   0.d0   0.d0   0.d0   0.d0   0.d0 
      1  1  1  1   0.5d0   -0.065d0    0.063d0   0.d0   0.d0   0.d0   0.d0   0.d0 
      1  1  1  1   0.5d0   -0.067d0    0.062d0   0.d0   0.d0   0.d0   0.d0   0.d0 
      1  1  1  1   0.5d0   -0.068d0    0.060d0   0.d0   0.d0   0.d0   0.d0   0.d0 
      1  1  1  1   0.5d0   -0.070d0    0.058d0   0.d0   0.d0   0.d0   0.d0   0.d0 
      1  1  1  1   0.5d0   -0.071d0    0.056d0   0.d0   0.d0   0.d0   0.d0   0.d0 
      1  1  1  1   0.5d0   -0.073d0    0.055d0   0.d0   0.d0   0.d0   0.d0   0.d0 
      1  1  1  1   0.5d0   -0.074d0    0.053d0   0.d0   0.d0   0.d0   0.d0   0.d0 
      1  1  1  1   0.5d0   -0.075d0    0.051d0   0.d0   0.d0   0.d0   0.d0   0.d0 
      1  1  1  1   0.5d0   -0.077d0    0.049d0   0.d0   0.d0   0.d0   0.d0   0.d0 
      1  1  1  1   0.5d0   -0.078d0    0.047d0   0.d0   0.d0   0.d0   0.d0   0.d0 
      1  1  1  1   0.5d0   -0.079d0    0.045d0   0.d0   0.d0   0.d0   0.d0   0.d0 
      1  1  1  1   0.5d0   -0.080d0    0.043d0   0.d0   0.d0   0.d0   0.d0   0.d0 
      1  1  1  1   0.5d0   -0.081d0    0.041d0   0.d0   0.d0   0.d0   0.d0   0.d0 
      1  1  1  1   0.5d0   -0.082d0    0.039d0   0.d0   0.d0   0.d0   0.d0   0.d0 
      1  1  1  1   0.5d0   -0.083d0    0.037d0   0.d0   0.d0   0.d0   0.d0   0.d0 
      1  1  1  1   0.5d0   -0.084d0    0.035d0   0.d0   0.d0   0.d0   0.d0   0.d0 
      1  1  1  1   0.5d0   -0.085d0    0.033d0   0.d0   0.d0   0.d0   0.d0   0.d0 
      1  1  1  1   0.5d0   -0.086d0    0.030d0   0.d0   0.d0   0.d0   0.d0   0.d0 
      1  1  1  1   0.5d0   -0.087d0    0.028d0   0.d0   0.d0   0.d0   0.d0   0.d0 
      1  1  1  1   0.5d0   -0.087d0    0.026d0   0.d0   0.d0   0.d0   0.d0   0.d0 
      1  1  1  1   0.5d0   -0.088d0    0.024d0   0.d0   0.d0   0.d0   0.d0   0.d0 
      1  1  1  1   0.5d0   -0.088d0    0.022d0   0.d0   0.d0   0.d0   0.d0   0.d0 
      1  1  1  1   0.5d0   -0.089d0    0.019d0   0.d0   0.d0   0.d0   0.d0   0.d0 
      1  1  1  1   0.5d0   -0.089d0    0.017d0   0.d0   0.d0   0.d0   0.d0   0.d0 
      1  1  1  1   0.5d0   -0.090d0    0.015d0   0.d0   0.d0   0.d0   0.d0   0.d0 
      1  1  1  1   0.5d0   -0.090d0    0.013d0   0.d0   0.d0   0.d0   0.d0   0.d0 
      1  1  1  1   0.5d0   -0.090d0    0.010d0   0.d0   0.d0   0.d0   0.d0   0.d0 
      1  1  1  1   0.5d0   -0.091d0    0.008d0   0.d0   0.d0   0.d0   0.d0   0.d0 
      1  1  1  1   0.5d0   -0.091d0    0.006d0   0.d0   0.d0   0.d0   0.d0   0.d0 
      1  1  1  1   0.5d0   -0.091d0    0.003d0   0.d0   0.d0   0.d0   0.d0   0.d0 
      1  1  1  1   0.5d0   -0.091d0    0.001d0   0.d0   0.d0   0.d0   0.d0   0.d0 
      1  1  1  1   0.5d0   -0.091d0   -0.001d0   0.d0   0.d0   0.d0   0.d0   0.d0 
      1  1  1  1   0.5d0   -0.091d0   -0.003d0   0.d0   0.d0   0.d0   0.d0   0.d0 
      1  1  1  1   0.5d0   -0.091d0   -0.006d0   0.d0   0.d0   0.d0   0.d0   0.d0 
      1  1  1  1   0.5d0   -0.091d0   -0.008d0   0.d0   0.d0   0.d0   0.d0   0.d0 
      1  1  1  1   0.5d0   -0.090d0   -0.010d0   0.d0   0.d0   0.d0   0.d0   0.d0 
      1  1  1  1   0.5d0   -0.090d0   -0.013d0   0.d0   0.d0   0.d0   0.d0   0.d0 
      1  1  1  1   0.5d0   -0.090d0   -0.015d0   0.d0   0.d0   0.d0   0.d0   0.d0 
      1  1  1  1   0.5d0   -0.089d0   -0.017d0   0.d0   0.d0   0.d0   0.d0   0.d0 
      1  1  1  1   0.5d0   -0.089d0   -0.019d0   0.d0   0.d0   0.d0   0.d0   0.d0 
      1  1  1  1   0.5d0   -0.088d0   -0.022d0   0.d0   0.d0   0.d0   0.d0   0.d0 
      1  1  1  1   0.5d0   -0.088d0   -0.024d0   0.d0   0.d0   0.d0   0.d0   0.d0 
      1  1  1  1   0.5d0   -0.087d0   -0.026d0   0.d0   0.d0   0.d0   0.d0   0.d0 
      1  1  1  1   0.5d0   -0.087d0   -0.028d0   0.d0   0.d0   0.d0   0.d0   0.d0 
      1  1  1  1   0.5d0   -0.086d0   -0.030d0   0.d0   0.d0   0.d0   0.d0   0.d0 
      1  1  1  1   0.5d0   -0.085d0   -0.033d0   0.d0   0.d0   0.d0   0.d0   0.d0 
      1  1  1  1   0.5d0   -0.084d0   -0.035d0   0.d0   0.d0   0.d0   0.d0   0.d0 
      1  1  1  1   0.5d0   -0.083d0   -0.037d0   0.d0   0.d0   0.d0   0.d0   0.d0 
      1  1  1  1   0.5d0   -0.082d0   -0.039d0   0.d0   0.d0   0.d0   0.d0   0.d0 
      1  1  1  1   0.5d0   -0.081d0   -0.041d0   0.d0   0.d0   0.d0   0.d0   0.d0 
      1  1  1  1   0.5d0   -0.080d0   -0.043d0   0.d0   0.d0   0.d0   0.d0   0.d0 
      1  1  1  1   0.5d0   -0.079d0   -0.045d0   0.d0   0.d0   0.d0   0.d0   0.d0 
      1  1  1  1   0.5d0   -0.078d0   -0.047d0   0.d0   0.d0   0.d0   0.d0   0.d0 
      1  1  1  1   0.5d0   -0.077d0   -0.049d0   0.d0   0.d0   0.d0   0.d0   0.d0 
      1  1  1  1   0.5d0   -0.075d0   -0.051d0   0.d0   0.d0   0.d0   0.d0   0.d0 
      1  1  1  1   0.5d0   -0.074d0   -0.053d0   0.d0   0.d0   0.d0   0.d0   0.d0 
      1  1  1  1   0.5d0   -0.073d0   -0.055d0   0.d0   0.d0   0.d0   0.d0   0.d0 
      1  1  1  1   0.5d0   -0.071d0   -0.056d0   0.d0   0.d0   0.d0   0.d0   0.d0 
      1  1  1  1   0.5d0   -0.070d0   -0.058d0   0.d0   0.d0   0.d0   0.d0   0.d0 
      1  1  1  1   0.5d0   -0.068d0   -0.060d0   0.d0   0.d0   0.d0   0.d0   0.d0 
      1  1  1  1   0.5d0   -0.067d0   -0.062d0   0.d0   0.d0   0.d0   0.d0   0.d0 
      1  1  1  1   0.5d0   -0.065d0   -0.063d0   0.d0   0.d0   0.d0   0.d0   0.d0 
      1  1  1  1   0.5d0   -0.064d0   -0.065d0   0.d0   0.d0   0.d0   0.d0   0.d0 
      1  1  1  1   0.5d0   -0.062d0   -0.067d0   0.d0   0.d0   0.d0   0.d0   0.d0 
      1  1  1  1   0.5d0   -0.060d0   -0.068d0   0.d0   0.d0   0.d0   0.d0   0.d0 
      1  1  1  1   0.5d0   -0.059d0   -0.070d0   0.d0   0.d0   0.d0   0.d0   0.d0 
      1  1  1  1   0.5d0   -0.057d0   -0.071d0   0.d0   0.d0   0.d0   0.d0   0.d0 
      1  1  1  1   0.5d0   -0.055d0   -0.072d0   0.d0   0.d0   0.d0   0.d0   0.d0 
      1  1  1  1   0.5d0   -0.053d0   -0.074d0   0.d0   0.d0   0.d0   0.d0   0.d0 
      1  1  1  1   0.5d0   -0.051d0   -0.075d0   0.d0   0.d0   0.d0   0.d0   0.d0 
      1  1  1  1   0.5d0   -0.049d0   -0.076d0   0.d0   0.d0   0.d0   0.d0   0.d0 
      1  1  1  1   0.5d0   -0.047d0   -0.078d0   0.d0   0.d0   0.d0   0.d0   0.d0 
      1  1  1  1   0.5d0   -0.046d0   -0.079d0   0.d0   0.d0   0.d0   0.d0   0.d0 
      1  1  1  1   0.5d0   -0.043d0   -0.080d0   0.d0   0.d0   0.d0   0.d0   0.d0 
      1  1  1  1   0.5d0   -0.041d0   -0.081d0   0.d0   0.d0   0.d0   0.d0   0.d0 
      1  1  1  1   0.5d0   -0.039d0   -0.082d0   0.d0   0.d0   0.d0   0.d0   0.d0 
      1  1  1  1   0.5d0   -0.037d0   -0.083d0   0.d0   0.d0   0.d0   0.d0   0.d0 
      1  1  1  1   0.5d0   -0.035d0   -0.084d0   0.d0   0.d0   0.d0   0.d0   0.d0 
      1  1  1  1   0.5d0   -0.033d0   -0.085d0   0.d0   0.d0   0.d0   0.d0   0.d0 
      1  1  1  1   0.5d0   -0.031d0   -0.086d0   0.d0   0.d0   0.d0   0.d0   0.d0 
      1  1  1  1   0.5d0   -0.029d0   -0.086d0   0.d0   0.d0   0.d0   0.d0   0.d0 
      1  1  1  1   0.5d0   -0.027d0   -0.087d0   0.d0   0.d0   0.d0   0.d0   0.d0 
      1  1  1  1   0.5d0   -0.024d0   -0.088d0   0.d0   0.d0   0.d0   0.d0   0.d0 
      1  1  1  1   0.5d0   -0.022d0   -0.088d0   0.d0   0.d0   0.d0   0.d0   0.d0 
      1  1  1  1   0.5d0   -0.020d0   -0.089d0   0.d0   0.d0   0.d0   0.d0   0.d0 
      1  1  1  1   0.5d0   -0.018d0   -0.089d0   0.d0   0.d0   0.d0   0.d0   0.d0 
      1  1  1  1   0.5d0   -0.015d0   -0.090d0   0.d0   0.d0   0.d0   0.d0   0.d0 
      1  1  1  1   0.5d0   -0.013d0   -0.090d0   0.d0   0.d0   0.d0   0.d0   0.d0 
      1  1  1  1   0.5d0   -0.011d0   -0.090d0   0.d0   0.d0   0.d0   0.d0   0.d0 
      1  1  1  1   0.5d0   -0.009d0   -0.091d0   0.d0   0.d0   0.d0   0.d0   0.d0 
      1  1  1  1   0.5d0   -0.006d0   -0.091d0   0.d0   0.d0   0.d0   0.d0   0.d0 
      1  1  1  1   0.5d0   -0.004d0   -0.091d0   0.d0   0.d0   0.d0   0.d0   0.d0 
      1  1  1  1   0.5d0   -0.002d0   -0.091d0   0.d0   0.d0   0.d0   0.d0   0.d0 
      1  1  1  1   0.5d0    0.001d0   -0.091d0   0.d0   0.d0   0.d0   0.d0   0.d0 
      1  1  1  1   0.5d0    0.003d0   -0.091d0   0.d0   0.d0   0.d0   0.d0   0.d0 
      1  1  1  1   0.5d0    0.005d0   -0.091d0   0.d0   0.d0   0.d0   0.d0   0.d0 
      1  1  1  1   0.5d0    0.007d0   -0.091d0   0.d0   0.d0   0.d0   0.d0   0.d0 
      1  1  1  1   0.5d0    0.010d0   -0.090d0   0.d0   0.d0   0.d0   0.d0   0.d0 
      1  1  1  1   0.5d0    0.012d0   -0.090d0   0.d0   0.d0   0.d0   0.d0   0.d0 
      1  1  1  1   0.5d0    0.014d0   -0.090d0   0.d0   0.d0   0.d0   0.d0   0.d0 
      1  1  1  1   0.5d0    0.017d0   -0.089d0   0.d0   0.d0   0.d0   0.d0   0.d0 
      1  1  1  1   0.5d0    0.019d0   -0.089d0   0.d0   0.d0   0.d0   0.d0   0.d0 
      1  1  1  1   0.5d0    0.021d0   -0.089d0   0.d0   0.d0   0.d0   0.d0   0.d0 
      1  1  1  1   0.5d0    0.023d0   -0.088d0   0.d0   0.d0   0.d0   0.d0   0.d0 
      1  1  1  1   0.5d0    0.025d0   -0.087d0   0.d0   0.d0   0.d0   0.d0   0.d0 
      1  1  1  1   0.5d0    0.028d0   -0.087d0   0.d0   0.d0   0.d0   0.d0   0.d0 
      1  1  1  1   0.5d0    0.030d0   -0.086d0   0.d0   0.d0   0.d0   0.d0   0.d0 
      1  1  1  1   0.5d0    0.032d0   -0.085d0   0.d0   0.d0   0.d0   0.d0   0.d0 
      1  1  1  1   0.5d0    0.034d0   -0.084d0   0.d0   0.d0   0.d0   0.d0   0.d0 
      1  1  1  1   0.5d0    0.036d0   -0.083d0   0.d0   0.d0   0.d0   0.d0   0.d0 
      1  1  1  1   0.5d0    0.038d0   -0.083d0   0.d0   0.d0   0.d0   0.d0   0.d0 
      1  1  1  1   0.5d0    0.040d0   -0.082d0   0.d0   0.d0   0.d0   0.d0   0.d0 
      1  1  1  1   0.5d0    0.042d0   -0.080d0   0.d0   0.d0   0.d0   0.d0   0.d0 
      1  1  1  1   0.5d0    0.045d0   -0.079d0   0.d0   0.d0   0.d0   0.d0   0.d0 
      1  1  1  1   0.5d0    0.046d0   -0.078d0   0.d0   0.d0   0.d0   0.d0   0.d0 
      1  1  1  1   0.5d0    0.048d0   -0.077d0   0.d0   0.d0   0.d0   0.d0   0.d0 
      1  1  1  1   0.5d0    0.050d0   -0.076d0   0.d0   0.d0   0.d0   0.d0   0.d0 
      1  1  1  1   0.5d0    0.052d0   -0.074d0   0.d0   0.d0   0.d0   0.d0   0.d0 
      1  1  1  1   0.5d0    0.054d0   -0.073d0   0.d0   0.d0   0.d0   0.d0   0.d0 
      1  1  1  1   0.5d0    0.056d0   -0.072d0   0.d0   0.d0   0.d0   0.d0   0.d0 
      1  1  1  1   0.5d0    0.058d0   -0.070d0   0.d0   0.d0   0.d0   0.d0   0.d0 
      1  1  1  1   0.5d0    0.060d0   -0.069d0   0.d0   0.d0   0.d0   0.d0   0.d0 
      1  1  1  1   0.5d0    0.061d0   -0.067d0   0.d0   0.d0   0.d0   0.d0   0.d0 
      1  1  1  1   0.5d0    0.063d0   -0.066d0   0.d0   0.d0   0.d0   0.d0   0.d0 
      1  1  1  1   0.5d0    0.065d0   -0.064d0   0.d0   0.d0   0.d0   0.d0   0.d0 
      1  1  1  1   0.5d0    0.066d0   -0.062d0   0.d0   0.d0   0.d0   0.d0   0.d0 
      1  1  1  1   0.5d0    0.068d0   -0.061d0   0.d0   0.d0   0.d0   0.d0   0.d0 
      1  1  1  1   0.5d0    0.069d0   -0.059d0   0.d0   0.d0   0.d0   0.d0   0.d0 
      1  1  1  1   0.5d0    0.071d0   -0.057d0   0.d0   0.d0   0.d0   0.d0   0.d0 
      1  1  1  1   0.5d0    0.072d0   -0.056d0   0.d0   0.d0   0.d0   0.d0   0.d0 
      1  1  1  1   0.5d0    0.073d0   -0.054d0   0.d0   0.d0   0.d0   0.d0   0.d0 
      1  1  1  1   0.5d0    0.075d0   -0.052d0   0.d0   0.d0   0.d0   0.d0   0.d0 
      1  1  1  1   0.5d0    0.076d0   -0.050d0   0.d0   0.d0   0.d0   0.d0   0.d0 
      1  1  1  1   0.5d0    0.077d0   -0.048d0   0.d0   0.d0   0.d0   0.d0   0.d0 
      1  1  1  1   0.5d0    0.079d0   -0.046d0   0.d0   0.d0   0.d0   0.d0   0.d0 
      1  1  1  1   0.5d0    0.080d0   -0.044d0   0.d0   0.d0   0.d0   0.d0   0.d0 
      1  1  1  1   0.5d0    0.081d0   -0.042d0   0.d0   0.d0   0.d0   0.d0   0.d0 
      1  1  1  1   0.5d0    0.082d0   -0.040d0   0.d0   0.d0   0.d0   0.d0   0.d0 
      1  1  1  1   0.5d0    0.083d0   -0.038d0   0.d0   0.d0   0.d0   0.d0   0.d0 
      1  1  1  1   0.5d0    0.084d0   -0.036d0   0.d0   0.d0   0.d0   0.d0   0.d0 
      1  1  1  1   0.5d0    0.085d0   -0.034d0   0.d0   0.d0   0.d0   0.d0   0.d0 
      1  1  1  1   0.5d0    0.085d0   -0.031d0   0.d0   0.d0   0.d0   0.d0   0.d0 
      1  1  1  1   0.5d0    0.086d0   -0.029d0   0.d0   0.d0   0.d0   0.d0   0.d0 
      1  1  1  1   0.5d0    0.087d0   -0.027d0   0.d0   0.d0   0.d0   0.d0   0.d0 
      1  1  1  1   0.5d0    0.088d0   -0.025d0   0.d0   0.d0   0.d0   0.d0   0.d0 
      1  1  1  1   0.5d0    0.088d0   -0.023d0   0.d0   0.d0   0.d0   0.d0   0.d0 
      1  1  1  1   0.5d0    0.089d0   -0.020d0   0.d0   0.d0   0.d0   0.d0   0.d0 
      1  1  1  1   0.5d0    0.089d0   -0.018d0   0.d0   0.d0   0.d0   0.d0   0.d0 
      1  1  1  1   0.5d0    0.090d0   -0.016d0   0.d0   0.d0   0.d0   0.d0   0.d0 
      1  1  1  1   0.5d0    0.090d0   -0.014d0   0.d0   0.d0   0.d0   0.d0   0.d0 
      1  1  1  1   0.5d0    0.090d0   -0.011d0   0.d0   0.d0   0.d0   0.d0   0.d0 
      1  1  1  1   0.5d0    0.091d0   -0.009d0   0.d0   0.d0   0.d0   0.d0   0.d0 
      1  1  1  1   0.5d0    0.091d0   -0.007d0   0.d0   0.d0   0.d0   0.d0   0.d0 
      1  1  1  1   0.5d0    0.091d0   -0.005d0   0.d0   0.d0   0.d0   0.d0   0.d0 
      1  1  1  1   0.5d0    0.091d0   -0.002d0   0.d0   0.d0   0.d0   0.d0   0.d0 
      1  1  1  1   0.5d0    0.091d0   -0.000d0   0.d0   0.d0   0.d0   0.d0   0.d0 
      1  1  1  1   0.5d0    0.097d0    0.000d0   0.d0   0.d0   0.d0   0.d0   0.d0 
      1  1  1  1   0.5d0    0.097d0    0.002d0   0.d0   0.d0   0.d0   0.d0   0.d0 
      1  1  1  1   0.5d0    0.097d0    0.005d0   0.d0   0.d0   0.d0   0.d0   0.d0 
      1  1  1  1   0.5d0    0.096d0    0.007d0   0.d0   0.d0   0.d0   0.d0   0.d0 
      1  1  1  1   0.5d0    0.096d0    0.010d0   0.d0   0.d0   0.d0   0.d0   0.d0 
      1  1  1  1   0.5d0    0.096d0    0.012d0   0.d0   0.d0   0.d0   0.d0   0.d0 
      1  1  1  1   0.5d0    0.096d0    0.015d0   0.d0   0.d0   0.d0   0.d0   0.d0 
      1  1  1  1   0.5d0    0.095d0    0.017d0   0.d0   0.d0   0.d0   0.d0   0.d0 
      1  1  1  1   0.5d0    0.095d0    0.019d0   0.d0   0.d0   0.d0   0.d0   0.d0 
      1  1  1  1   0.5d0    0.094d0    0.022d0   0.d0   0.d0   0.d0   0.d0   0.d0 
      1  1  1  1   0.5d0    0.094d0    0.024d0   0.d0   0.d0   0.d0   0.d0   0.d0 
      1  1  1  1   0.5d0    0.093d0    0.027d0   0.d0   0.d0   0.d0   0.d0   0.d0 
      1  1  1  1   0.5d0    0.092d0    0.029d0   0.d0   0.d0   0.d0   0.d0   0.d0 
      1  1  1  1   0.5d0    0.092d0    0.031d0   0.d0   0.d0   0.d0   0.d0   0.d0 
      1  1  1  1   0.5d0    0.091d0    0.033d0   0.d0   0.d0   0.d0   0.d0   0.d0 
      1  1  1  1   0.5d0    0.090d0    0.036d0   0.d0   0.d0   0.d0   0.d0   0.d0 
      1  1  1  1   0.5d0    0.089d0    0.038d0   0.d0   0.d0   0.d0   0.d0   0.d0 
      1  1  1  1   0.5d0    0.088d0    0.040d0   0.d0   0.d0   0.d0   0.d0   0.d0 
      1  1  1  1   0.5d0    0.087d0    0.042d0   0.d0   0.d0   0.d0   0.d0   0.d0 
      1  1  1  1   0.5d0    0.086d0    0.045d0   0.d0   0.d0   0.d0   0.d0   0.d0 
      1  1  1  1   0.5d0    0.085d0    0.047d0   0.d0   0.d0   0.d0   0.d0   0.d0 
      1  1  1  1   0.5d0    0.083d0    0.049d0   0.d0   0.d0   0.d0   0.d0   0.d0 
      1  1  1  1   0.5d0    0.082d0    0.051d0   0.d0   0.d0   0.d0   0.d0   0.d0 
      1  1  1  1   0.5d0    0.081d0    0.053d0   0.d0   0.d0   0.d0   0.d0   0.d0 
      1  1  1  1   0.5d0    0.080d0    0.055d0   0.d0   0.d0   0.d0   0.d0   0.d0 
      1  1  1  1   0.5d0    0.078d0    0.057d0   0.d0   0.d0   0.d0   0.d0   0.d0 
      1  1  1  1   0.5d0    0.077d0    0.059d0   0.d0   0.d0   0.d0   0.d0   0.d0 
      1  1  1  1   0.5d0    0.075d0    0.061d0   0.d0   0.d0   0.d0   0.d0   0.d0 
      1  1  1  1   0.5d0    0.074d0    0.063d0   0.d0   0.d0   0.d0   0.d0   0.d0 
      1  1  1  1   0.5d0    0.072d0    0.065d0   0.d0   0.d0   0.d0   0.d0   0.d0 
      1  1  1  1   0.5d0    0.070d0    0.066d0   0.d0   0.d0   0.d0   0.d0   0.d0 
      1  1  1  1   0.5d0    0.069d0    0.068d0   0.d0   0.d0   0.d0   0.d0   0.d0 
      1  1  1  1   0.5d0    0.067d0    0.070d0   0.d0   0.d0   0.d0   0.d0   0.d0 
      1  1  1  1   0.5d0    0.065d0    0.072d0   0.d0   0.d0   0.d0   0.d0   0.d0 
      1  1  1  1   0.5d0    0.063d0    0.073d0   0.d0   0.d0   0.d0   0.d0   0.d0 
      1  1  1  1   0.5d0    0.061d0    0.075d0   0.d0   0.d0   0.d0   0.d0   0.d0 
      1  1  1  1   0.5d0    0.059d0    0.076d0   0.d0   0.d0   0.d0   0.d0   0.d0 
      1  1  1  1   0.5d0    0.058d0    0.078d0   0.d0   0.d0   0.d0   0.d0   0.d0 
      1  1  1  1   0.5d0    0.056d0    0.079d0   0.d0   0.d0   0.d0   0.d0   0.d0 
      1  1  1  1   0.5d0    0.054d0    0.081d0   0.d0   0.d0   0.d0   0.d0   0.d0 
      1  1  1  1   0.5d0    0.052d0    0.082d0   0.d0   0.d0   0.d0   0.d0   0.d0 
      1  1  1  1   0.5d0    0.049d0    0.083d0   0.d0   0.d0   0.d0   0.d0   0.d0 
      1  1  1  1   0.5d0    0.047d0    0.084d0   0.d0   0.d0   0.d0   0.d0   0.d0 
      1  1  1  1   0.5d0    0.045d0    0.086d0   0.d0   0.d0   0.d0   0.d0   0.d0 
      1  1  1  1   0.5d0    0.043d0    0.087d0   0.d0   0.d0   0.d0   0.d0   0.d0 
      1  1  1  1   0.5d0    0.041d0    0.088d0   0.d0   0.d0   0.d0   0.d0   0.d0 
      1  1  1  1   0.5d0    0.039d0    0.089d0   0.d0   0.d0   0.d0   0.d0   0.d0 
      1  1  1  1   0.5d0    0.036d0    0.090d0   0.d0   0.d0   0.d0   0.d0   0.d0 
      1  1  1  1   0.5d0    0.034d0    0.091d0   0.d0   0.d0   0.d0   0.d0   0.d0 
      1  1  1  1   0.5d0    0.032d0    0.091d0   0.d0   0.d0   0.d0   0.d0   0.d0 
      1  1  1  1   0.5d0    0.029d0    0.092d0   0.d0   0.d0   0.d0   0.d0   0.d0 
      1  1  1  1   0.5d0    0.027d0    0.093d0   0.d0   0.d0   0.d0   0.d0   0.d0 
      1  1  1  1   0.5d0    0.025d0    0.094d0   0.d0   0.d0   0.d0   0.d0   0.d0 
      1  1  1  1   0.5d0    0.022d0    0.094d0   0.d0   0.d0   0.d0   0.d0   0.d0 
      1  1  1  1   0.5d0    0.020d0    0.095d0   0.d0   0.d0   0.d0   0.d0   0.d0 
      1  1  1  1   0.5d0    0.018d0    0.095d0   0.d0   0.d0   0.d0   0.d0   0.d0 
      1  1  1  1   0.5d0    0.015d0    0.096d0   0.d0   0.d0   0.d0   0.d0   0.d0 
      1  1  1  1   0.5d0    0.013d0    0.096d0   0.d0   0.d0   0.d0   0.d0   0.d0 
      1  1  1  1   0.5d0    0.010d0    0.096d0   0.d0   0.d0   0.d0   0.d0   0.d0 
      1  1  1  1   0.5d0    0.008d0    0.096d0   0.d0   0.d0   0.d0   0.d0   0.d0 
      1  1  1  1   0.5d0    0.005d0    0.097d0   0.d0   0.d0   0.d0   0.d0   0.d0 
      1  1  1  1   0.5d0    0.003d0    0.097d0   0.d0   0.d0   0.d0   0.d0   0.d0 
      1  1  1  1   0.5d0    0.001d0    0.097d0   0.d0   0.d0   0.d0   0.d0   0.d0 
      1  1  1  1   0.5d0   -0.002d0    0.097d0   0.d0   0.d0   0.d0   0.d0   0.d0 
      1  1  1  1   0.5d0   -0.004d0    0.097d0   0.d0   0.d0   0.d0   0.d0   0.d0 
      1  1  1  1   0.5d0   -0.007d0    0.097d0   0.d0   0.d0   0.d0   0.d0   0.d0 
      1  1  1  1   0.5d0   -0.009d0    0.096d0   0.d0   0.d0   0.d0   0.d0   0.d0 
      1  1  1  1   0.5d0   -0.012d0    0.096d0   0.d0   0.d0   0.d0   0.d0   0.d0 
      1  1  1  1   0.5d0   -0.014d0    0.096d0   0.d0   0.d0   0.d0   0.d0   0.d0 
      1  1  1  1   0.5d0   -0.016d0    0.095d0   0.d0   0.d0   0.d0   0.d0   0.d0 
      1  1  1  1   0.5d0   -0.019d0    0.095d0   0.d0   0.d0   0.d0   0.d0   0.d0 
      1  1  1  1   0.5d0   -0.021d0    0.094d0   0.d0   0.d0   0.d0   0.d0   0.d0 
      1  1  1  1   0.5d0   -0.024d0    0.094d0   0.d0   0.d0   0.d0   0.d0   0.d0 
      1  1  1  1   0.5d0   -0.026d0    0.093d0   0.d0   0.d0   0.d0   0.d0   0.d0 
      1  1  1  1   0.5d0   -0.028d0    0.093d0   0.d0   0.d0   0.d0   0.d0   0.d0 
      1  1  1  1   0.5d0   -0.031d0    0.092d0   0.d0   0.d0   0.d0   0.d0   0.d0 
      1  1  1  1   0.5d0   -0.033d0    0.091d0   0.d0   0.d0   0.d0   0.d0   0.d0 
      1  1  1  1   0.5d0   -0.035d0    0.090d0   0.d0   0.d0   0.d0   0.d0   0.d0 
      1  1  1  1   0.5d0   -0.037d0    0.089d0   0.d0   0.d0   0.d0   0.d0   0.d0 
      1  1  1  1   0.5d0   -0.040d0    0.088d0   0.d0   0.d0   0.d0   0.d0   0.d0 
      1  1  1  1   0.5d0   -0.042d0    0.087d0   0.d0   0.d0   0.d0   0.d0   0.d0 
      1  1  1  1   0.5d0   -0.044d0    0.086d0   0.d0   0.d0   0.d0   0.d0   0.d0 
      1  1  1  1   0.5d0   -0.046d0    0.085d0   0.d0   0.d0   0.d0   0.d0   0.d0 
      1  1  1  1   0.5d0   -0.048d0    0.084d0   0.d0   0.d0   0.d0   0.d0   0.d0 
      1  1  1  1   0.5d0   -0.050d0    0.083d0   0.d0   0.d0   0.d0   0.d0   0.d0 
      1  1  1  1   0.5d0   -0.053d0    0.081d0   0.d0   0.d0   0.d0   0.d0   0.d0 
      1  1  1  1   0.5d0   -0.055d0    0.080d0   0.d0   0.d0   0.d0   0.d0   0.d0 
      1  1  1  1   0.5d0   -0.057d0    0.078d0   0.d0   0.d0   0.d0   0.d0   0.d0 
      1  1  1  1   0.5d0   -0.059d0    0.077d0   0.d0   0.d0   0.d0   0.d0   0.d0 
      1  1  1  1   0.5d0   -0.060d0    0.076d0   0.d0   0.d0   0.d0   0.d0   0.d0 
      1  1  1  1   0.5d0   -0.062d0    0.074d0   0.d0   0.d0   0.d0   0.d0   0.d0 
      1  1  1  1   0.5d0   -0.064d0    0.072d0   0.d0   0.d0   0.d0   0.d0   0.d0 
      1  1  1  1   0.5d0   -0.066d0    0.071d0   0.d0   0.d0   0.d0   0.d0   0.d0 
      1  1  1  1   0.5d0   -0.068d0    0.069d0   0.d0   0.d0   0.d0   0.d0   0.d0 
      1  1  1  1   0.5d0   -0.069d0    0.067d0   0.d0   0.d0   0.d0   0.d0   0.d0 
      1  1  1  1   0.5d0   -0.071d0    0.066d0   0.d0   0.d0   0.d0   0.d0   0.d0 
      1  1  1  1   0.5d0   -0.073d0    0.064d0   0.d0   0.d0   0.d0   0.d0   0.d0 
      1  1  1  1   0.5d0   -0.074d0    0.062d0   0.d0   0.d0   0.d0   0.d0   0.d0 
      1  1  1  1   0.5d0   -0.076d0    0.060d0   0.d0   0.d0   0.d0   0.d0   0.d0 
      1  1  1  1   0.5d0   -0.077d0    0.058d0   0.d0   0.d0   0.d0   0.d0   0.d0 
      1  1  1  1   0.5d0   -0.079d0    0.056d0   0.d0   0.d0   0.d0   0.d0   0.d0 
      1  1  1  1   0.5d0   -0.080d0    0.054d0   0.d0   0.d0   0.d0   0.d0   0.d0 
      1  1  1  1   0.5d0   -0.082d0    0.052d0   0.d0   0.d0   0.d0   0.d0   0.d0 
      1  1  1  1   0.5d0   -0.083d0    0.050d0   0.d0   0.d0   0.d0   0.d0   0.d0 
      1  1  1  1   0.5d0   -0.084d0    0.048d0   0.d0   0.d0   0.d0   0.d0   0.d0 
      1  1  1  1   0.5d0   -0.085d0    0.046d0   0.d0   0.d0   0.d0   0.d0   0.d0 
      1  1  1  1   0.5d0   -0.086d0    0.044d0   0.d0   0.d0   0.d0   0.d0   0.d0 
      1  1  1  1   0.5d0   -0.087d0    0.041d0   0.d0   0.d0   0.d0   0.d0   0.d0 
      1  1  1  1   0.5d0   -0.088d0    0.039d0   0.d0   0.d0   0.d0   0.d0   0.d0 
      1  1  1  1   0.5d0   -0.089d0    0.037d0   0.d0   0.d0   0.d0   0.d0   0.d0 
      1  1  1  1   0.5d0   -0.090d0    0.035d0   0.d0   0.d0   0.d0   0.d0   0.d0 
      1  1  1  1   0.5d0   -0.091d0    0.032d0   0.d0   0.d0   0.d0   0.d0   0.d0 
      1  1  1  1   0.5d0   -0.092d0    0.030d0   0.d0   0.d0   0.d0   0.d0   0.d0 
      1  1  1  1   0.5d0   -0.093d0    0.028d0   0.d0   0.d0   0.d0   0.d0   0.d0 
      1  1  1  1   0.5d0   -0.093d0    0.025d0   0.d0   0.d0   0.d0   0.d0   0.d0 
      1  1  1  1   0.5d0   -0.094d0    0.023d0   0.d0   0.d0   0.d0   0.d0   0.d0 
      1  1  1  1   0.5d0   -0.095d0    0.021d0   0.d0   0.d0   0.d0   0.d0   0.d0 
      1  1  1  1   0.5d0   -0.095d0    0.018d0   0.d0   0.d0   0.d0   0.d0   0.d0 
      1  1  1  1   0.5d0   -0.095d0    0.016d0   0.d0   0.d0   0.d0   0.d0   0.d0 
      1  1  1  1   0.5d0   -0.096d0    0.013d0   0.d0   0.d0   0.d0   0.d0   0.d0 
      1  1  1  1   0.5d0   -0.096d0    0.011d0   0.d0   0.d0   0.d0   0.d0   0.d0 
      1  1  1  1   0.5d0   -0.096d0    0.009d0   0.d0   0.d0   0.d0   0.d0   0.d0 
      1  1  1  1   0.5d0   -0.097d0    0.006d0   0.d0   0.d0   0.d0   0.d0   0.d0 
      1  1  1  1   0.5d0   -0.097d0    0.004d0   0.d0   0.d0   0.d0   0.d0   0.d0 
      1  1  1  1   0.5d0   -0.097d0    0.001d0   0.d0   0.d0   0.d0   0.d0   0.d0 
      1  1  1  1   0.5d0   -0.097d0   -0.001d0   0.d0   0.d0   0.d0   0.d0   0.d0 
      1  1  1  1   0.5d0   -0.097d0   -0.004d0   0.d0   0.d0   0.d0   0.d0   0.d0 
      1  1  1  1   0.5d0   -0.097d0   -0.006d0   0.d0   0.d0   0.d0   0.d0   0.d0 
      1  1  1  1   0.5d0   -0.096d0   -0.009d0   0.d0   0.d0   0.d0   0.d0   0.d0 
      1  1  1  1   0.5d0   -0.096d0   -0.011d0   0.d0   0.d0   0.d0   0.d0   0.d0 
      1  1  1  1   0.5d0   -0.096d0   -0.013d0   0.d0   0.d0   0.d0   0.d0   0.d0 
      1  1  1  1   0.5d0   -0.095d0   -0.016d0   0.d0   0.d0   0.d0   0.d0   0.d0 
      1  1  1  1   0.5d0   -0.095d0   -0.018d0   0.d0   0.d0   0.d0   0.d0   0.d0 
      1  1  1  1   0.5d0   -0.095d0   -0.021d0   0.d0   0.d0   0.d0   0.d0   0.d0 
      1  1  1  1   0.5d0   -0.094d0   -0.023d0   0.d0   0.d0   0.d0   0.d0   0.d0 
      1  1  1  1   0.5d0   -0.093d0   -0.025d0   0.d0   0.d0   0.d0   0.d0   0.d0 
      1  1  1  1   0.5d0   -0.093d0   -0.028d0   0.d0   0.d0   0.d0   0.d0   0.d0 
      1  1  1  1   0.5d0   -0.092d0   -0.030d0   0.d0   0.d0   0.d0   0.d0   0.d0 
      1  1  1  1   0.5d0   -0.091d0   -0.032d0   0.d0   0.d0   0.d0   0.d0   0.d0 
      1  1  1  1   0.5d0   -0.090d0   -0.035d0   0.d0   0.d0   0.d0   0.d0   0.d0 
      1  1  1  1   0.5d0   -0.089d0   -0.037d0   0.d0   0.d0   0.d0   0.d0   0.d0 
      1  1  1  1   0.5d0   -0.088d0   -0.039d0   0.d0   0.d0   0.d0   0.d0   0.d0 
      1  1  1  1   0.5d0   -0.087d0   -0.041d0   0.d0   0.d0   0.d0   0.d0   0.d0 
      1  1  1  1   0.5d0   -0.086d0   -0.044d0   0.d0   0.d0   0.d0   0.d0   0.d0 
      1  1  1  1   0.5d0   -0.085d0   -0.046d0   0.d0   0.d0   0.d0   0.d0   0.d0 
      1  1  1  1   0.5d0   -0.084d0   -0.048d0   0.d0   0.d0   0.d0   0.d0   0.d0 
      1  1  1  1   0.5d0   -0.083d0   -0.050d0   0.d0   0.d0   0.d0   0.d0   0.d0 
      1  1  1  1   0.5d0   -0.082d0   -0.052d0   0.d0   0.d0   0.d0   0.d0   0.d0 
      1  1  1  1   0.5d0   -0.080d0   -0.054d0   0.d0   0.d0   0.d0   0.d0   0.d0 
      1  1  1  1   0.5d0   -0.079d0   -0.056d0   0.d0   0.d0   0.d0   0.d0   0.d0 
      1  1  1  1   0.5d0   -0.077d0   -0.058d0   0.d0   0.d0   0.d0   0.d0   0.d0 
      1  1  1  1   0.5d0   -0.076d0   -0.060d0   0.d0   0.d0   0.d0   0.d0   0.d0 
      1  1  1  1   0.5d0   -0.074d0   -0.062d0   0.d0   0.d0   0.d0   0.d0   0.d0 
      1  1  1  1   0.5d0   -0.073d0   -0.064d0   0.d0   0.d0   0.d0   0.d0   0.d0 
      1  1  1  1   0.5d0   -0.071d0   -0.066d0   0.d0   0.d0   0.d0   0.d0   0.d0 
      1  1  1  1   0.5d0   -0.069d0   -0.067d0   0.d0   0.d0   0.d0   0.d0   0.d0 
      1  1  1  1   0.5d0   -0.068d0   -0.069d0   0.d0   0.d0   0.d0   0.d0   0.d0 
      1  1  1  1   0.5d0   -0.066d0   -0.071d0   0.d0   0.d0   0.d0   0.d0   0.d0 
      1  1  1  1   0.5d0   -0.064d0   -0.072d0   0.d0   0.d0   0.d0   0.d0   0.d0 
      1  1  1  1   0.5d0   -0.062d0   -0.074d0   0.d0   0.d0   0.d0   0.d0   0.d0 
      1  1  1  1   0.5d0   -0.060d0   -0.076d0   0.d0   0.d0   0.d0   0.d0   0.d0 
      1  1  1  1   0.5d0   -0.059d0   -0.077d0   0.d0   0.d0   0.d0   0.d0   0.d0 
      1  1  1  1   0.5d0   -0.057d0   -0.078d0   0.d0   0.d0   0.d0   0.d0   0.d0 
      1  1  1  1   0.5d0   -0.055d0   -0.080d0   0.d0   0.d0   0.d0   0.d0   0.d0 
      1  1  1  1   0.5d0   -0.053d0   -0.081d0   0.d0   0.d0   0.d0   0.d0   0.d0 
      1  1  1  1   0.5d0   -0.050d0   -0.083d0   0.d0   0.d0   0.d0   0.d0   0.d0 
      1  1  1  1   0.5d0   -0.048d0   -0.084d0   0.d0   0.d0   0.d0   0.d0   0.d0 
      1  1  1  1   0.5d0   -0.046d0   -0.085d0   0.d0   0.d0   0.d0   0.d0   0.d0 
      1  1  1  1   0.5d0   -0.044d0   -0.086d0   0.d0   0.d0   0.d0   0.d0   0.d0 
      1  1  1  1   0.5d0   -0.042d0   -0.087d0   0.d0   0.d0   0.d0   0.d0   0.d0 
      1  1  1  1   0.5d0   -0.040d0   -0.088d0   0.d0   0.d0   0.d0   0.d0   0.d0 
      1  1  1  1   0.5d0   -0.037d0   -0.089d0   0.d0   0.d0   0.d0   0.d0   0.d0 
      1  1  1  1   0.5d0   -0.035d0   -0.090d0   0.d0   0.d0   0.d0   0.d0   0.d0 
      1  1  1  1   0.5d0   -0.033d0   -0.091d0   0.d0   0.d0   0.d0   0.d0   0.d0 
      1  1  1  1   0.5d0   -0.031d0   -0.092d0   0.d0   0.d0   0.d0   0.d0   0.d0 
      1  1  1  1   0.5d0   -0.028d0   -0.093d0   0.d0   0.d0   0.d0   0.d0   0.d0 
      1  1  1  1   0.5d0   -0.026d0   -0.093d0   0.d0   0.d0   0.d0   0.d0   0.d0 
      1  1  1  1   0.5d0   -0.024d0   -0.094d0   0.d0   0.d0   0.d0   0.d0   0.d0 
      1  1  1  1   0.5d0   -0.021d0   -0.094d0   0.d0   0.d0   0.d0   0.d0   0.d0 
      1  1  1  1   0.5d0   -0.019d0   -0.095d0   0.d0   0.d0   0.d0   0.d0   0.d0 
      1  1  1  1   0.5d0   -0.016d0   -0.095d0   0.d0   0.d0   0.d0   0.d0   0.d0 
      1  1  1  1   0.5d0   -0.014d0   -0.096d0   0.d0   0.d0   0.d0   0.d0   0.d0 
      1  1  1  1   0.5d0   -0.012d0   -0.096d0   0.d0   0.d0   0.d0   0.d0   0.d0 
      1  1  1  1   0.5d0   -0.009d0   -0.096d0   0.d0   0.d0   0.d0   0.d0   0.d0 
      1  1  1  1   0.5d0   -0.007d0   -0.097d0   0.d0   0.d0   0.d0   0.d0   0.d0 
      1  1  1  1   0.5d0   -0.004d0   -0.097d0   0.d0   0.d0   0.d0   0.d0   0.d0 
      1  1  1  1   0.5d0   -0.002d0   -0.097d0   0.d0   0.d0   0.d0   0.d0   0.d0 
      1  1  1  1   0.5d0    0.001d0   -0.097d0   0.d0   0.d0   0.d0   0.d0   0.d0 
      1  1  1  1   0.5d0    0.003d0   -0.097d0   0.d0   0.d0   0.d0   0.d0   0.d0 
      1  1  1  1   0.5d0    0.005d0   -0.097d0   0.d0   0.d0   0.d0   0.d0   0.d0 
      1  1  1  1   0.5d0    0.008d0   -0.096d0   0.d0   0.d0   0.d0   0.d0   0.d0 
      1  1  1  1   0.5d0    0.010d0   -0.096d0   0.d0   0.d0   0.d0   0.d0   0.d0 
      1  1  1  1   0.5d0    0.013d0   -0.096d0   0.d0   0.d0   0.d0   0.d0   0.d0 
      1  1  1  1   0.5d0    0.015d0   -0.096d0   0.d0   0.d0   0.d0   0.d0   0.d0 
      1  1  1  1   0.5d0    0.018d0   -0.095d0   0.d0   0.d0   0.d0   0.d0   0.d0 
      1  1  1  1   0.5d0    0.020d0   -0.095d0   0.d0   0.d0   0.d0   0.d0   0.d0 
      1  1  1  1   0.5d0    0.022d0   -0.094d0   0.d0   0.d0   0.d0   0.d0   0.d0 
      1  1  1  1   0.5d0    0.025d0   -0.094d0   0.d0   0.d0   0.d0   0.d0   0.d0 
      1  1  1  1   0.5d0    0.027d0   -0.093d0   0.d0   0.d0   0.d0   0.d0   0.d0 
      1  1  1  1   0.5d0    0.029d0   -0.092d0   0.d0   0.d0   0.d0   0.d0   0.d0 
      1  1  1  1   0.5d0    0.032d0   -0.091d0   0.d0   0.d0   0.d0   0.d0   0.d0 
      1  1  1  1   0.5d0    0.034d0   -0.091d0   0.d0   0.d0   0.d0   0.d0   0.d0 
      1  1  1  1   0.5d0    0.036d0   -0.090d0   0.d0   0.d0   0.d0   0.d0   0.d0 
      1  1  1  1   0.5d0    0.039d0   -0.089d0   0.d0   0.d0   0.d0   0.d0   0.d0 
      1  1  1  1   0.5d0    0.041d0   -0.088d0   0.d0   0.d0   0.d0   0.d0   0.d0 
      1  1  1  1   0.5d0    0.043d0   -0.087d0   0.d0   0.d0   0.d0   0.d0   0.d0 
      1  1  1  1   0.5d0    0.045d0   -0.086d0   0.d0   0.d0   0.d0   0.d0   0.d0 
      1  1  1  1   0.5d0    0.047d0   -0.084d0   0.d0   0.d0   0.d0   0.d0   0.d0 
      1  1  1  1   0.5d0    0.049d0   -0.083d0   0.d0   0.d0   0.d0   0.d0   0.d0 
      1  1  1  1   0.5d0    0.052d0   -0.082d0   0.d0   0.d0   0.d0   0.d0   0.d0 
      1  1  1  1   0.5d0    0.054d0   -0.081d0   0.d0   0.d0   0.d0   0.d0   0.d0 
      1  1  1  1   0.5d0    0.056d0   -0.079d0   0.d0   0.d0   0.d0   0.d0   0.d0 
      1  1  1  1   0.5d0    0.058d0   -0.078d0   0.d0   0.d0   0.d0   0.d0   0.d0 
      1  1  1  1   0.5d0    0.059d0   -0.076d0   0.d0   0.d0   0.d0   0.d0   0.d0 
      1  1  1  1   0.5d0    0.061d0   -0.075d0   0.d0   0.d0   0.d0   0.d0   0.d0 
      1  1  1  1   0.5d0    0.063d0   -0.073d0   0.d0   0.d0   0.d0   0.d0   0.d0 
      1  1  1  1   0.5d0    0.065d0   -0.072d0   0.d0   0.d0   0.d0   0.d0   0.d0 
      1  1  1  1   0.5d0    0.067d0   -0.070d0   0.d0   0.d0   0.d0   0.d0   0.d0 
      1  1  1  1   0.5d0    0.069d0   -0.068d0   0.d0   0.d0   0.d0   0.d0   0.d0 
      1  1  1  1   0.5d0    0.070d0   -0.066d0   0.d0   0.d0   0.d0   0.d0   0.d0 
      1  1  1  1   0.5d0    0.072d0   -0.065d0   0.d0   0.d0   0.d0   0.d0   0.d0 
      1  1  1  1   0.5d0    0.074d0   -0.063d0   0.d0   0.d0   0.d0   0.d0   0.d0 
      1  1  1  1   0.5d0    0.075d0   -0.061d0   0.d0   0.d0   0.d0   0.d0   0.d0 
      1  1  1  1   0.5d0    0.077d0   -0.059d0   0.d0   0.d0   0.d0   0.d0   0.d0 
      1  1  1  1   0.5d0    0.078d0   -0.057d0   0.d0   0.d0   0.d0   0.d0   0.d0 
      1  1  1  1   0.5d0    0.080d0   -0.055d0   0.d0   0.d0   0.d0   0.d0   0.d0 
      1  1  1  1   0.5d0    0.081d0   -0.053d0   0.d0   0.d0   0.d0   0.d0   0.d0 
      1  1  1  1   0.5d0    0.082d0   -0.051d0   0.d0   0.d0   0.d0   0.d0   0.d0 
      1  1  1  1   0.5d0    0.083d0   -0.049d0   0.d0   0.d0   0.d0   0.d0   0.d0 
      1  1  1  1   0.5d0    0.085d0   -0.047d0   0.d0   0.d0   0.d0   0.d0   0.d0 
      1  1  1  1   0.5d0    0.086d0   -0.045d0   0.d0   0.d0   0.d0   0.d0   0.d0 
      1  1  1  1   0.5d0    0.087d0   -0.042d0   0.d0   0.d0   0.d0   0.d0   0.d0 
      1  1  1  1   0.5d0    0.088d0   -0.040d0   0.d0   0.d0   0.d0   0.d0   0.d0 
      1  1  1  1   0.5d0    0.089d0   -0.038d0   0.d0   0.d0   0.d0   0.d0   0.d0 
      1  1  1  1   0.5d0    0.090d0   -0.036d0   0.d0   0.d0   0.d0   0.d0   0.d0 
      1  1  1  1   0.5d0    0.091d0   -0.033d0   0.d0   0.d0   0.d0   0.d0   0.d0 
      1  1  1  1   0.5d0    0.092d0   -0.031d0   0.d0   0.d0   0.d0   0.d0   0.d0 
      1  1  1  1   0.5d0    0.092d0   -0.029d0   0.d0   0.d0   0.d0   0.d0   0.d0 
      1  1  1  1   0.5d0    0.093d0   -0.027d0   0.d0   0.d0   0.d0   0.d0   0.d0 
      1  1  1  1   0.5d0    0.094d0   -0.024d0   0.d0   0.d0   0.d0   0.d0   0.d0 
      1  1  1  1   0.5d0    0.094d0   -0.022d0   0.d0   0.d0   0.d0   0.d0   0.d0 
      1  1  1  1   0.5d0    0.095d0   -0.019d0   0.d0   0.d0   0.d0   0.d0   0.d0 
      1  1  1  1   0.5d0    0.095d0   -0.017d0   0.d0   0.d0   0.d0   0.d0   0.d0 
      1  1  1  1   0.5d0    0.096d0   -0.015d0   0.d0   0.d0   0.d0   0.d0   0.d0 
      1  1  1  1   0.5d0    0.096d0   -0.012d0   0.d0   0.d0   0.d0   0.d0   0.d0 
      1  1  1  1   0.5d0    0.096d0   -0.010d0   0.d0   0.d0   0.d0   0.d0   0.d0 
      1  1  1  1   0.5d0    0.096d0   -0.007d0   0.d0   0.d0   0.d0   0.d0   0.d0 
      1  1  1  1   0.5d0    0.097d0   -0.005d0   0.d0   0.d0   0.d0   0.d0   0.d0 
      1  1  1  1   0.5d0    0.097d0   -0.002d0   0.d0   0.d0   0.d0   0.d0   0.d0 
      1  1  1  1   0.5d0    0.097d0   -0.000d0   0.d0   0.d0   0.d0   0.d0   0.d0 
      1  1  1  1   0.5d0    0.102d0    0.000d0   0.d0   0.d0   0.d0   0.d0   0.d0 
      1  1  1  1   0.5d0    0.102d0    0.003d0   0.d0   0.d0   0.d0   0.d0   0.d0 
      1  1  1  1   0.5d0    0.102d0    0.005d0   0.d0   0.d0   0.d0   0.d0   0.d0 
      1  1  1  1   0.5d0    0.102d0    0.008d0   0.d0   0.d0   0.d0   0.d0   0.d0 
      1  1  1  1   0.5d0    0.102d0    0.010d0   0.d0   0.d0   0.d0   0.d0   0.d0 
      1  1  1  1   0.5d0    0.102d0    0.013d0   0.d0   0.d0   0.d0   0.d0   0.d0 
      1  1  1  1   0.5d0    0.101d0    0.015d0   0.d0   0.d0   0.d0   0.d0   0.d0 
      1  1  1  1   0.5d0    0.101d0    0.018d0   0.d0   0.d0   0.d0   0.d0   0.d0 
      1  1  1  1   0.5d0    0.100d0    0.021d0   0.d0   0.d0   0.d0   0.d0   0.d0 
      1  1  1  1   0.5d0    0.100d0    0.023d0   0.d0   0.d0   0.d0   0.d0   0.d0 
      1  1  1  1   0.5d0    0.099d0    0.026d0   0.d0   0.d0   0.d0   0.d0   0.d0 
      1  1  1  1   0.5d0    0.099d0    0.028d0   0.d0   0.d0   0.d0   0.d0   0.d0 
      1  1  1  1   0.5d0    0.098d0    0.031d0   0.d0   0.d0   0.d0   0.d0   0.d0 
      1  1  1  1   0.5d0    0.097d0    0.033d0   0.d0   0.d0   0.d0   0.d0   0.d0 
      1  1  1  1   0.5d0    0.096d0    0.035d0   0.d0   0.d0   0.d0   0.d0   0.d0 
      1  1  1  1   0.5d0    0.095d0    0.038d0   0.d0   0.d0   0.d0   0.d0   0.d0 
      1  1  1  1   0.5d0    0.094d0    0.040d0   0.d0   0.d0   0.d0   0.d0   0.d0 
      1  1  1  1   0.5d0    0.093d0    0.043d0   0.d0   0.d0   0.d0   0.d0   0.d0 
      1  1  1  1   0.5d0    0.092d0    0.045d0   0.d0   0.d0   0.d0   0.d0   0.d0 
      1  1  1  1   0.5d0    0.091d0    0.047d0   0.d0   0.d0   0.d0   0.d0   0.d0 
      1  1  1  1   0.5d0    0.090d0    0.050d0   0.d0   0.d0   0.d0   0.d0   0.d0 
      1  1  1  1   0.5d0    0.088d0    0.052d0   0.d0   0.d0   0.d0   0.d0   0.d0 
      1  1  1  1   0.5d0    0.087d0    0.054d0   0.d0   0.d0   0.d0   0.d0   0.d0 
      1  1  1  1   0.5d0    0.086d0    0.056d0   0.d0   0.d0   0.d0   0.d0   0.d0 
      1  1  1  1   0.5d0    0.084d0    0.058d0   0.d0   0.d0   0.d0   0.d0   0.d0 
      1  1  1  1   0.5d0    0.083d0    0.060d0   0.d0   0.d0   0.d0   0.d0   0.d0 
      1  1  1  1   0.5d0    0.081d0    0.063d0   0.d0   0.d0   0.d0   0.d0   0.d0 
      1  1  1  1   0.5d0    0.080d0    0.065d0   0.d0   0.d0   0.d0   0.d0   0.d0 
      1  1  1  1   0.5d0    0.078d0    0.067d0   0.d0   0.d0   0.d0   0.d0   0.d0 
      1  1  1  1   0.5d0    0.076d0    0.068d0   0.d0   0.d0   0.d0   0.d0   0.d0 
      1  1  1  1   0.5d0    0.074d0    0.070d0   0.d0   0.d0   0.d0   0.d0   0.d0 
      1  1  1  1   0.5d0    0.073d0    0.072d0   0.d0   0.d0   0.d0   0.d0   0.d0 
      1  1  1  1   0.5d0    0.071d0    0.074d0   0.d0   0.d0   0.d0   0.d0   0.d0 
      1  1  1  1   0.5d0    0.069d0    0.076d0   0.d0   0.d0   0.d0   0.d0   0.d0 
      1  1  1  1   0.5d0    0.067d0    0.078d0   0.d0   0.d0   0.d0   0.d0   0.d0 
      1  1  1  1   0.5d0    0.065d0    0.079d0   0.d0   0.d0   0.d0   0.d0   0.d0 
      1  1  1  1   0.5d0    0.063d0    0.081d0   0.d0   0.d0   0.d0   0.d0   0.d0 
      1  1  1  1   0.5d0    0.061d0    0.082d0   0.d0   0.d0   0.d0   0.d0   0.d0 
      1  1  1  1   0.5d0    0.059d0    0.084d0   0.d0   0.d0   0.d0   0.d0   0.d0 
      1  1  1  1   0.5d0    0.057d0    0.085d0   0.d0   0.d0   0.d0   0.d0   0.d0 
      1  1  1  1   0.5d0    0.055d0    0.087d0   0.d0   0.d0   0.d0   0.d0   0.d0 
      1  1  1  1   0.5d0    0.052d0    0.088d0   0.d0   0.d0   0.d0   0.d0   0.d0 
      1  1  1  1   0.5d0    0.050d0    0.089d0   0.d0   0.d0   0.d0   0.d0   0.d0 
      1  1  1  1   0.5d0    0.048d0    0.091d0   0.d0   0.d0   0.d0   0.d0   0.d0 
      1  1  1  1   0.5d0    0.046d0    0.092d0   0.d0   0.d0   0.d0   0.d0   0.d0 
      1  1  1  1   0.5d0    0.043d0    0.093d0   0.d0   0.d0   0.d0   0.d0   0.d0 
      1  1  1  1   0.5d0    0.041d0    0.094d0   0.d0   0.d0   0.d0   0.d0   0.d0 
      1  1  1  1   0.5d0    0.038d0    0.095d0   0.d0   0.d0   0.d0   0.d0   0.d0 
      1  1  1  1   0.5d0    0.036d0    0.096d0   0.d0   0.d0   0.d0   0.d0   0.d0 
      1  1  1  1   0.5d0    0.034d0    0.097d0   0.d0   0.d0   0.d0   0.d0   0.d0 
      1  1  1  1   0.5d0    0.031d0    0.098d0   0.d0   0.d0   0.d0   0.d0   0.d0 
      1  1  1  1   0.5d0    0.029d0    0.098d0   0.d0   0.d0   0.d0   0.d0   0.d0 
      1  1  1  1   0.5d0    0.026d0    0.099d0   0.d0   0.d0   0.d0   0.d0   0.d0 
      1  1  1  1   0.5d0    0.024d0    0.100d0   0.d0   0.d0   0.d0   0.d0   0.d0 
      1  1  1  1   0.5d0    0.021d0    0.100d0   0.d0   0.d0   0.d0   0.d0   0.d0 
      1  1  1  1   0.5d0    0.019d0    0.101d0   0.d0   0.d0   0.d0   0.d0   0.d0 
      1  1  1  1   0.5d0    0.016d0    0.101d0   0.d0   0.d0   0.d0   0.d0   0.d0 
      1  1  1  1   0.5d0    0.014d0    0.102d0   0.d0   0.d0   0.d0   0.d0   0.d0 
      1  1  1  1   0.5d0    0.011d0    0.102d0   0.d0   0.d0   0.d0   0.d0   0.d0 
      1  1  1  1   0.5d0    0.008d0    0.102d0   0.d0   0.d0   0.d0   0.d0   0.d0 
      1  1  1  1   0.5d0    0.006d0    0.102d0   0.d0   0.d0   0.d0   0.d0   0.d0 
      1  1  1  1   0.5d0    0.003d0    0.102d0   0.d0   0.d0   0.d0   0.d0   0.d0 
      1  1  1  1   0.5d0    0.001d0    0.102d0   0.d0   0.d0   0.d0   0.d0   0.d0 
      1  1  1  1   0.5d0   -0.002d0    0.102d0   0.d0   0.d0   0.d0   0.d0   0.d0 
      1  1  1  1   0.5d0   -0.005d0    0.102d0   0.d0   0.d0   0.d0   0.d0   0.d0 
      1  1  1  1   0.5d0   -0.007d0    0.102d0   0.d0   0.d0   0.d0   0.d0   0.d0 
      1  1  1  1   0.5d0   -0.010d0    0.102d0   0.d0   0.d0   0.d0   0.d0   0.d0 
      1  1  1  1   0.5d0   -0.012d0    0.102d0   0.d0   0.d0   0.d0   0.d0   0.d0 
      1  1  1  1   0.5d0   -0.015d0    0.101d0   0.d0   0.d0   0.d0   0.d0   0.d0 
      1  1  1  1   0.5d0   -0.017d0    0.101d0   0.d0   0.d0   0.d0   0.d0   0.d0 
      1  1  1  1   0.5d0   -0.020d0    0.101d0   0.d0   0.d0   0.d0   0.d0   0.d0 
      1  1  1  1   0.5d0   -0.022d0    0.100d0   0.d0   0.d0   0.d0   0.d0   0.d0 
      1  1  1  1   0.5d0   -0.025d0    0.099d0   0.d0   0.d0   0.d0   0.d0   0.d0 
      1  1  1  1   0.5d0   -0.027d0    0.099d0   0.d0   0.d0   0.d0   0.d0   0.d0 
      1  1  1  1   0.5d0   -0.030d0    0.098d0   0.d0   0.d0   0.d0   0.d0   0.d0 
      1  1  1  1   0.5d0   -0.032d0    0.097d0   0.d0   0.d0   0.d0   0.d0   0.d0 
      1  1  1  1   0.5d0   -0.035d0    0.096d0   0.d0   0.d0   0.d0   0.d0   0.d0 
      1  1  1  1   0.5d0   -0.037d0    0.095d0   0.d0   0.d0   0.d0   0.d0   0.d0 
      1  1  1  1   0.5d0   -0.040d0    0.094d0   0.d0   0.d0   0.d0   0.d0   0.d0 
      1  1  1  1   0.5d0   -0.042d0    0.093d0   0.d0   0.d0   0.d0   0.d0   0.d0 
      1  1  1  1   0.5d0   -0.044d0    0.092d0   0.d0   0.d0   0.d0   0.d0   0.d0 
      1  1  1  1   0.5d0   -0.047d0    0.091d0   0.d0   0.d0   0.d0   0.d0   0.d0 
      1  1  1  1   0.5d0   -0.049d0    0.090d0   0.d0   0.d0   0.d0   0.d0   0.d0 
      1  1  1  1   0.5d0   -0.051d0    0.089d0   0.d0   0.d0   0.d0   0.d0   0.d0 
      1  1  1  1   0.5d0   -0.053d0    0.087d0   0.d0   0.d0   0.d0   0.d0   0.d0 
      1  1  1  1   0.5d0   -0.056d0    0.086d0   0.d0   0.d0   0.d0   0.d0   0.d0 
      1  1  1  1   0.5d0   -0.058d0    0.085d0   0.d0   0.d0   0.d0   0.d0   0.d0 
      1  1  1  1   0.5d0   -0.060d0    0.083d0   0.d0   0.d0   0.d0   0.d0   0.d0 
      1  1  1  1   0.5d0   -0.062d0    0.082d0   0.d0   0.d0   0.d0   0.d0   0.d0 
      1  1  1  1   0.5d0   -0.064d0    0.080d0   0.d0   0.d0   0.d0   0.d0   0.d0 
      1  1  1  1   0.5d0   -0.066d0    0.078d0   0.d0   0.d0   0.d0   0.d0   0.d0 
      1  1  1  1   0.5d0   -0.068d0    0.077d0   0.d0   0.d0   0.d0   0.d0   0.d0 
      1  1  1  1   0.5d0   -0.070d0    0.075d0   0.d0   0.d0   0.d0   0.d0   0.d0 
      1  1  1  1   0.5d0   -0.072d0    0.073d0   0.d0   0.d0   0.d0   0.d0   0.d0 
      1  1  1  1   0.5d0   -0.074d0    0.071d0   0.d0   0.d0   0.d0   0.d0   0.d0 
      1  1  1  1   0.5d0   -0.075d0    0.069d0   0.d0   0.d0   0.d0   0.d0   0.d0 
      1  1  1  1   0.5d0   -0.077d0    0.068d0   0.d0   0.d0   0.d0   0.d0   0.d0 
      1  1  1  1   0.5d0   -0.079d0    0.066d0   0.d0   0.d0   0.d0   0.d0   0.d0 
      1  1  1  1   0.5d0   -0.080d0    0.064d0   0.d0   0.d0   0.d0   0.d0   0.d0 
      1  1  1  1   0.5d0   -0.082d0    0.061d0   0.d0   0.d0   0.d0   0.d0   0.d0 
      1  1  1  1   0.5d0   -0.084d0    0.059d0   0.d0   0.d0   0.d0   0.d0   0.d0 
      1  1  1  1   0.5d0   -0.085d0    0.057d0   0.d0   0.d0   0.d0   0.d0   0.d0 
      1  1  1  1   0.5d0   -0.086d0    0.055d0   0.d0   0.d0   0.d0   0.d0   0.d0 
      1  1  1  1   0.5d0   -0.088d0    0.053d0   0.d0   0.d0   0.d0   0.d0   0.d0 
      1  1  1  1   0.5d0   -0.089d0    0.051d0   0.d0   0.d0   0.d0   0.d0   0.d0 
      1  1  1  1   0.5d0   -0.090d0    0.048d0   0.d0   0.d0   0.d0   0.d0   0.d0 
      1  1  1  1   0.5d0   -0.092d0    0.046d0   0.d0   0.d0   0.d0   0.d0   0.d0 
      1  1  1  1   0.5d0   -0.093d0    0.044d0   0.d0   0.d0   0.d0   0.d0   0.d0 
      1  1  1  1   0.5d0   -0.094d0    0.041d0   0.d0   0.d0   0.d0   0.d0   0.d0 
      1  1  1  1   0.5d0   -0.095d0    0.039d0   0.d0   0.d0   0.d0   0.d0   0.d0 
      1  1  1  1   0.5d0   -0.096d0    0.037d0   0.d0   0.d0   0.d0   0.d0   0.d0 
      1  1  1  1   0.5d0   -0.097d0    0.034d0   0.d0   0.d0   0.d0   0.d0   0.d0 
      1  1  1  1   0.5d0   -0.097d0    0.032d0   0.d0   0.d0   0.d0   0.d0   0.d0 
      1  1  1  1   0.5d0   -0.098d0    0.029d0   0.d0   0.d0   0.d0   0.d0   0.d0 
      1  1  1  1   0.5d0   -0.099d0    0.027d0   0.d0   0.d0   0.d0   0.d0   0.d0 
      1  1  1  1   0.5d0   -0.100d0    0.024d0   0.d0   0.d0   0.d0   0.d0   0.d0 
      1  1  1  1   0.5d0   -0.100d0    0.022d0   0.d0   0.d0   0.d0   0.d0   0.d0 
      1  1  1  1   0.5d0   -0.101d0    0.019d0   0.d0   0.d0   0.d0   0.d0   0.d0 
      1  1  1  1   0.5d0   -0.101d0    0.017d0   0.d0   0.d0   0.d0   0.d0   0.d0 
      1  1  1  1   0.5d0   -0.101d0    0.014d0   0.d0   0.d0   0.d0   0.d0   0.d0 
      1  1  1  1   0.5d0   -0.102d0    0.012d0   0.d0   0.d0   0.d0   0.d0   0.d0 
      1  1  1  1   0.5d0   -0.102d0    0.009d0   0.d0   0.d0   0.d0   0.d0   0.d0 
      1  1  1  1   0.5d0   -0.102d0    0.006d0   0.d0   0.d0   0.d0   0.d0   0.d0 
      1  1  1  1   0.5d0   -0.102d0    0.004d0   0.d0   0.d0   0.d0   0.d0   0.d0 
      1  1  1  1   0.5d0   -0.102d0    0.001d0   0.d0   0.d0   0.d0   0.d0   0.d0 
      1  1  1  1   0.5d0   -0.102d0   -0.001d0   0.d0   0.d0   0.d0   0.d0   0.d0 
      1  1  1  1   0.5d0   -0.102d0   -0.004d0   0.d0   0.d0   0.d0   0.d0   0.d0 
      1  1  1  1   0.5d0   -0.102d0   -0.006d0   0.d0   0.d0   0.d0   0.d0   0.d0 
      1  1  1  1   0.5d0   -0.102d0   -0.009d0   0.d0   0.d0   0.d0   0.d0   0.d0 
      1  1  1  1   0.5d0   -0.102d0   -0.012d0   0.d0   0.d0   0.d0   0.d0   0.d0 
      1  1  1  1   0.5d0   -0.101d0   -0.014d0   0.d0   0.d0   0.d0   0.d0   0.d0 
      1  1  1  1   0.5d0   -0.101d0   -0.017d0   0.d0   0.d0   0.d0   0.d0   0.d0 
      1  1  1  1   0.5d0   -0.101d0   -0.019d0   0.d0   0.d0   0.d0   0.d0   0.d0 
      1  1  1  1   0.5d0   -0.100d0   -0.022d0   0.d0   0.d0   0.d0   0.d0   0.d0 
      1  1  1  1   0.5d0   -0.100d0   -0.024d0   0.d0   0.d0   0.d0   0.d0   0.d0 
      1  1  1  1   0.5d0   -0.099d0   -0.027d0   0.d0   0.d0   0.d0   0.d0   0.d0 
      1  1  1  1   0.5d0   -0.098d0   -0.029d0   0.d0   0.d0   0.d0   0.d0   0.d0 
      1  1  1  1   0.5d0   -0.097d0   -0.032d0   0.d0   0.d0   0.d0   0.d0   0.d0 
      1  1  1  1   0.5d0   -0.097d0   -0.034d0   0.d0   0.d0   0.d0   0.d0   0.d0 
      1  1  1  1   0.5d0   -0.096d0   -0.037d0   0.d0   0.d0   0.d0   0.d0   0.d0 
      1  1  1  1   0.5d0   -0.095d0   -0.039d0   0.d0   0.d0   0.d0   0.d0   0.d0 
      1  1  1  1   0.5d0   -0.094d0   -0.041d0   0.d0   0.d0   0.d0   0.d0   0.d0 
      1  1  1  1   0.5d0   -0.093d0   -0.044d0   0.d0   0.d0   0.d0   0.d0   0.d0 
      1  1  1  1   0.5d0   -0.092d0   -0.046d0   0.d0   0.d0   0.d0   0.d0   0.d0 
      1  1  1  1   0.5d0   -0.090d0   -0.048d0   0.d0   0.d0   0.d0   0.d0   0.d0 
      1  1  1  1   0.5d0   -0.089d0   -0.051d0   0.d0   0.d0   0.d0   0.d0   0.d0 
      1  1  1  1   0.5d0   -0.088d0   -0.053d0   0.d0   0.d0   0.d0   0.d0   0.d0 
      1  1  1  1   0.5d0   -0.086d0   -0.055d0   0.d0   0.d0   0.d0   0.d0   0.d0 
      1  1  1  1   0.5d0   -0.085d0   -0.057d0   0.d0   0.d0   0.d0   0.d0   0.d0 
      1  1  1  1   0.5d0   -0.084d0   -0.059d0   0.d0   0.d0   0.d0   0.d0   0.d0 
      1  1  1  1   0.5d0   -0.082d0   -0.061d0   0.d0   0.d0   0.d0   0.d0   0.d0 
      1  1  1  1   0.5d0   -0.080d0   -0.064d0   0.d0   0.d0   0.d0   0.d0   0.d0 
      1  1  1  1   0.5d0   -0.079d0   -0.066d0   0.d0   0.d0   0.d0   0.d0   0.d0 
      1  1  1  1   0.5d0   -0.077d0   -0.068d0   0.d0   0.d0   0.d0   0.d0   0.d0 
      1  1  1  1   0.5d0   -0.075d0   -0.069d0   0.d0   0.d0   0.d0   0.d0   0.d0 
      1  1  1  1   0.5d0   -0.074d0   -0.071d0   0.d0   0.d0   0.d0   0.d0   0.d0 
      1  1  1  1   0.5d0   -0.072d0   -0.073d0   0.d0   0.d0   0.d0   0.d0   0.d0 
      1  1  1  1   0.5d0   -0.070d0   -0.075d0   0.d0   0.d0   0.d0   0.d0   0.d0 
      1  1  1  1   0.5d0   -0.068d0   -0.077d0   0.d0   0.d0   0.d0   0.d0   0.d0 
      1  1  1  1   0.5d0   -0.066d0   -0.078d0   0.d0   0.d0   0.d0   0.d0   0.d0 
      1  1  1  1   0.5d0   -0.064d0   -0.080d0   0.d0   0.d0   0.d0   0.d0   0.d0 
      1  1  1  1   0.5d0   -0.062d0   -0.082d0   0.d0   0.d0   0.d0   0.d0   0.d0 
      1  1  1  1   0.5d0   -0.060d0   -0.083d0   0.d0   0.d0   0.d0   0.d0   0.d0 
      1  1  1  1   0.5d0   -0.058d0   -0.085d0   0.d0   0.d0   0.d0   0.d0   0.d0 
      1  1  1  1   0.5d0   -0.056d0   -0.086d0   0.d0   0.d0   0.d0   0.d0   0.d0 
      1  1  1  1   0.5d0   -0.053d0   -0.087d0   0.d0   0.d0   0.d0   0.d0   0.d0 
      1  1  1  1   0.5d0   -0.051d0   -0.089d0   0.d0   0.d0   0.d0   0.d0   0.d0 
      1  1  1  1   0.5d0   -0.049d0   -0.090d0   0.d0   0.d0   0.d0   0.d0   0.d0 
      1  1  1  1   0.5d0   -0.047d0   -0.091d0   0.d0   0.d0   0.d0   0.d0   0.d0 
      1  1  1  1   0.5d0   -0.044d0   -0.092d0   0.d0   0.d0   0.d0   0.d0   0.d0 
      1  1  1  1   0.5d0   -0.042d0   -0.093d0   0.d0   0.d0   0.d0   0.d0   0.d0 
      1  1  1  1   0.5d0   -0.040d0   -0.094d0   0.d0   0.d0   0.d0   0.d0   0.d0 
      1  1  1  1   0.5d0   -0.037d0   -0.095d0   0.d0   0.d0   0.d0   0.d0   0.d0 
      1  1  1  1   0.5d0   -0.035d0   -0.096d0   0.d0   0.d0   0.d0   0.d0   0.d0 
      1  1  1  1   0.5d0   -0.032d0   -0.097d0   0.d0   0.d0   0.d0   0.d0   0.d0 
      1  1  1  1   0.5d0   -0.030d0   -0.098d0   0.d0   0.d0   0.d0   0.d0   0.d0 
      1  1  1  1   0.5d0   -0.027d0   -0.099d0   0.d0   0.d0   0.d0   0.d0   0.d0 
      1  1  1  1   0.5d0   -0.025d0   -0.099d0   0.d0   0.d0   0.d0   0.d0   0.d0 
      1  1  1  1   0.5d0   -0.022d0   -0.100d0   0.d0   0.d0   0.d0   0.d0   0.d0 
      1  1  1  1   0.5d0   -0.020d0   -0.101d0   0.d0   0.d0   0.d0   0.d0   0.d0 
      1  1  1  1   0.5d0   -0.017d0   -0.101d0   0.d0   0.d0   0.d0   0.d0   0.d0 
      1  1  1  1   0.5d0   -0.015d0   -0.101d0   0.d0   0.d0   0.d0   0.d0   0.d0 
      1  1  1  1   0.5d0   -0.012d0   -0.102d0   0.d0   0.d0   0.d0   0.d0   0.d0 
      1  1  1  1   0.5d0   -0.010d0   -0.102d0   0.d0   0.d0   0.d0   0.d0   0.d0 
      1  1  1  1   0.5d0   -0.007d0   -0.102d0   0.d0   0.d0   0.d0   0.d0   0.d0 
      1  1  1  1   0.5d0   -0.005d0   -0.102d0   0.d0   0.d0   0.d0   0.d0   0.d0 
      1  1  1  1   0.5d0   -0.002d0   -0.102d0   0.d0   0.d0   0.d0   0.d0   0.d0 
      1  1  1  1   0.5d0    0.001d0   -0.102d0   0.d0   0.d0   0.d0   0.d0   0.d0 
      1  1  1  1   0.5d0    0.003d0   -0.102d0   0.d0   0.d0   0.d0   0.d0   0.d0 
      1  1  1  1   0.5d0    0.006d0   -0.102d0   0.d0   0.d0   0.d0   0.d0   0.d0 
      1  1  1  1   0.5d0    0.008d0   -0.102d0   0.d0   0.d0   0.d0   0.d0   0.d0 
      1  1  1  1   0.5d0    0.011d0   -0.102d0   0.d0   0.d0   0.d0   0.d0   0.d0 
      1  1  1  1   0.5d0    0.014d0   -0.102d0   0.d0   0.d0   0.d0   0.d0   0.d0 
      1  1  1  1   0.5d0    0.016d0   -0.101d0   0.d0   0.d0   0.d0   0.d0   0.d0 
      1  1  1  1   0.5d0    0.019d0   -0.101d0   0.d0   0.d0   0.d0   0.d0   0.d0 
      1  1  1  1   0.5d0    0.021d0   -0.100d0   0.d0   0.d0   0.d0   0.d0   0.d0 
      1  1  1  1   0.5d0    0.024d0   -0.100d0   0.d0   0.d0   0.d0   0.d0   0.d0 
      1  1  1  1   0.5d0    0.026d0   -0.099d0   0.d0   0.d0   0.d0   0.d0   0.d0 
      1  1  1  1   0.5d0    0.029d0   -0.098d0   0.d0   0.d0   0.d0   0.d0   0.d0 
      1  1  1  1   0.5d0    0.031d0   -0.098d0   0.d0   0.d0   0.d0   0.d0   0.d0 
      1  1  1  1   0.5d0    0.034d0   -0.097d0   0.d0   0.d0   0.d0   0.d0   0.d0 
      1  1  1  1   0.5d0    0.036d0   -0.096d0   0.d0   0.d0   0.d0   0.d0   0.d0 
      1  1  1  1   0.5d0    0.038d0   -0.095d0   0.d0   0.d0   0.d0   0.d0   0.d0 
      1  1  1  1   0.5d0    0.041d0   -0.094d0   0.d0   0.d0   0.d0   0.d0   0.d0 
      1  1  1  1   0.5d0    0.043d0   -0.093d0   0.d0   0.d0   0.d0   0.d0   0.d0 
      1  1  1  1   0.5d0    0.046d0   -0.092d0   0.d0   0.d0   0.d0   0.d0   0.d0 
      1  1  1  1   0.5d0    0.048d0   -0.091d0   0.d0   0.d0   0.d0   0.d0   0.d0 
      1  1  1  1   0.5d0    0.050d0   -0.089d0   0.d0   0.d0   0.d0   0.d0   0.d0 
      1  1  1  1   0.5d0    0.052d0   -0.088d0   0.d0   0.d0   0.d0   0.d0   0.d0 
      1  1  1  1   0.5d0    0.055d0   -0.087d0   0.d0   0.d0   0.d0   0.d0   0.d0 
      1  1  1  1   0.5d0    0.057d0   -0.085d0   0.d0   0.d0   0.d0   0.d0   0.d0 
      1  1  1  1   0.5d0    0.059d0   -0.084d0   0.d0   0.d0   0.d0   0.d0   0.d0 
      1  1  1  1   0.5d0    0.061d0   -0.082d0   0.d0   0.d0   0.d0   0.d0   0.d0 
      1  1  1  1   0.5d0    0.063d0   -0.081d0   0.d0   0.d0   0.d0   0.d0   0.d0 
      1  1  1  1   0.5d0    0.065d0   -0.079d0   0.d0   0.d0   0.d0   0.d0   0.d0 
      1  1  1  1   0.5d0    0.067d0   -0.078d0   0.d0   0.d0   0.d0   0.d0   0.d0 
      1  1  1  1   0.5d0    0.069d0   -0.076d0   0.d0   0.d0   0.d0   0.d0   0.d0 
      1  1  1  1   0.5d0    0.071d0   -0.074d0   0.d0   0.d0   0.d0   0.d0   0.d0 
      1  1  1  1   0.5d0    0.073d0   -0.072d0   0.d0   0.d0   0.d0   0.d0   0.d0 
      1  1  1  1   0.5d0    0.074d0   -0.070d0   0.d0   0.d0   0.d0   0.d0   0.d0 
      1  1  1  1   0.5d0    0.076d0   -0.068d0   0.d0   0.d0   0.d0   0.d0   0.d0 
      1  1  1  1   0.5d0    0.078d0   -0.067d0   0.d0   0.d0   0.d0   0.d0   0.d0 
      1  1  1  1   0.5d0    0.080d0   -0.065d0   0.d0   0.d0   0.d0   0.d0   0.d0 
      1  1  1  1   0.5d0    0.081d0   -0.063d0   0.d0   0.d0   0.d0   0.d0   0.d0 
      1  1  1  1   0.5d0    0.083d0   -0.060d0   0.d0   0.d0   0.d0   0.d0   0.d0 
      1  1  1  1   0.5d0    0.084d0   -0.058d0   0.d0   0.d0   0.d0   0.d0   0.d0 
      1  1  1  1   0.5d0    0.086d0   -0.056d0   0.d0   0.d0   0.d0   0.d0   0.d0 
      1  1  1  1   0.5d0    0.087d0   -0.054d0   0.d0   0.d0   0.d0   0.d0   0.d0 
      1  1  1  1   0.5d0    0.088d0   -0.052d0   0.d0   0.d0   0.d0   0.d0   0.d0 
      1  1  1  1   0.5d0    0.090d0   -0.050d0   0.d0   0.d0   0.d0   0.d0   0.d0 
      1  1  1  1   0.5d0    0.091d0   -0.047d0   0.d0   0.d0   0.d0   0.d0   0.d0 
      1  1  1  1   0.5d0    0.092d0   -0.045d0   0.d0   0.d0   0.d0   0.d0   0.d0 
      1  1  1  1   0.5d0    0.093d0   -0.043d0   0.d0   0.d0   0.d0   0.d0   0.d0 
      1  1  1  1   0.5d0    0.094d0   -0.040d0   0.d0   0.d0   0.d0   0.d0   0.d0 
      1  1  1  1   0.5d0    0.095d0   -0.038d0   0.d0   0.d0   0.d0   0.d0   0.d0 
      1  1  1  1   0.5d0    0.096d0   -0.035d0   0.d0   0.d0   0.d0   0.d0   0.d0 
      1  1  1  1   0.5d0    0.097d0   -0.033d0   0.d0   0.d0   0.d0   0.d0   0.d0 
      1  1  1  1   0.5d0    0.098d0   -0.031d0   0.d0   0.d0   0.d0   0.d0   0.d0 
      1  1  1  1   0.5d0    0.099d0   -0.028d0   0.d0   0.d0   0.d0   0.d0   0.d0 
      1  1  1  1   0.5d0    0.099d0   -0.026d0   0.d0   0.d0   0.d0   0.d0   0.d0 
      1  1  1  1   0.5d0    0.100d0   -0.023d0   0.d0   0.d0   0.d0   0.d0   0.d0 
      1  1  1  1   0.5d0    0.100d0   -0.021d0   0.d0   0.d0   0.d0   0.d0   0.d0 
      1  1  1  1   0.5d0    0.101d0   -0.018d0   0.d0   0.d0   0.d0   0.d0   0.d0 
      1  1  1  1   0.5d0    0.101d0   -0.015d0   0.d0   0.d0   0.d0   0.d0   0.d0 
      1  1  1  1   0.5d0    0.102d0   -0.013d0   0.d0   0.d0   0.d0   0.d0   0.d0 
      1  1  1  1   0.5d0    0.102d0   -0.010d0   0.d0   0.d0   0.d0   0.d0   0.d0 
      1  1  1  1   0.5d0    0.102d0   -0.008d0   0.d0   0.d0   0.d0   0.d0   0.d0 
      1  1  1  1   0.5d0    0.102d0   -0.005d0   0.d0   0.d0   0.d0   0.d0   0.d0 
      1  1  1  1   0.5d0    0.102d0   -0.003d0   0.d0   0.d0   0.d0   0.d0   0.d0 
      1  1  1  1   0.5d0    0.102d0   -0.000d0   0.d0   0.d0   0.d0   0.d0   0.d0 
      1  1  1  1   0.5d0    0.108d0    0.000d0   0.d0   0.d0   0.d0   0.d0   0.d0 
      1  1  1  1   0.5d0    0.108d0    0.003d0   0.d0   0.d0   0.d0   0.d0   0.d0 
      1  1  1  1   0.5d0    0.108d0    0.005d0   0.d0   0.d0   0.d0   0.d0   0.d0 
      1  1  1  1   0.5d0    0.108d0    0.008d0   0.d0   0.d0   0.d0   0.d0   0.d0 
      1  1  1  1   0.5d0    0.108d0    0.011d0   0.d0   0.d0   0.d0   0.d0   0.d0 
      1  1  1  1   0.5d0    0.107d0    0.014d0   0.d0   0.d0   0.d0   0.d0   0.d0 
      1  1  1  1   0.5d0    0.107d0    0.016d0   0.d0   0.d0   0.d0   0.d0   0.d0 
      1  1  1  1   0.5d0    0.107d0    0.019d0   0.d0   0.d0   0.d0   0.d0   0.d0 
      1  1  1  1   0.5d0    0.106d0    0.022d0   0.d0   0.d0   0.d0   0.d0   0.d0 
      1  1  1  1   0.5d0    0.105d0    0.024d0   0.d0   0.d0   0.d0   0.d0   0.d0 
      1  1  1  1   0.5d0    0.105d0    0.027d0   0.d0   0.d0   0.d0   0.d0   0.d0 
      1  1  1  1   0.5d0    0.104d0    0.030d0   0.d0   0.d0   0.d0   0.d0   0.d0 
      1  1  1  1   0.5d0    0.103d0    0.032d0   0.d0   0.d0   0.d0   0.d0   0.d0 
      1  1  1  1   0.5d0    0.102d0    0.035d0   0.d0   0.d0   0.d0   0.d0   0.d0 
      1  1  1  1   0.5d0    0.102d0    0.037d0   0.d0   0.d0   0.d0   0.d0   0.d0 
      1  1  1  1   0.5d0    0.101d0    0.040d0   0.d0   0.d0   0.d0   0.d0   0.d0 
      1  1  1  1   0.5d0    0.100d0    0.043d0   0.d0   0.d0   0.d0   0.d0   0.d0 
      1  1  1  1   0.5d0    0.098d0    0.045d0   0.d0   0.d0   0.d0   0.d0   0.d0 
      1  1  1  1   0.5d0    0.097d0    0.047d0   0.d0   0.d0   0.d0   0.d0   0.d0 
      1  1  1  1   0.5d0    0.096d0    0.050d0   0.d0   0.d0   0.d0   0.d0   0.d0 
      1  1  1  1   0.5d0    0.095d0    0.052d0   0.d0   0.d0   0.d0   0.d0   0.d0 
      1  1  1  1   0.5d0    0.093d0    0.055d0   0.d0   0.d0   0.d0   0.d0   0.d0 
      1  1  1  1   0.5d0    0.092d0    0.057d0   0.d0   0.d0   0.d0   0.d0   0.d0 
      1  1  1  1   0.5d0    0.090d0    0.059d0   0.d0   0.d0   0.d0   0.d0   0.d0 
      1  1  1  1   0.5d0    0.089d0    0.062d0   0.d0   0.d0   0.d0   0.d0   0.d0 
      1  1  1  1   0.5d0    0.087d0    0.064d0   0.d0   0.d0   0.d0   0.d0   0.d0 
      1  1  1  1   0.5d0    0.086d0    0.066d0   0.d0   0.d0   0.d0   0.d0   0.d0 
      1  1  1  1   0.5d0    0.084d0    0.068d0   0.d0   0.d0   0.d0   0.d0   0.d0 
      1  1  1  1   0.5d0    0.082d0    0.070d0   0.d0   0.d0   0.d0   0.d0   0.d0 
      1  1  1  1   0.5d0    0.081d0    0.072d0   0.d0   0.d0   0.d0   0.d0   0.d0 
      1  1  1  1   0.5d0    0.079d0    0.074d0   0.d0   0.d0   0.d0   0.d0   0.d0 
      1  1  1  1   0.5d0    0.077d0    0.076d0   0.d0   0.d0   0.d0   0.d0   0.d0 
      1  1  1  1   0.5d0    0.075d0    0.078d0   0.d0   0.d0   0.d0   0.d0   0.d0 
      1  1  1  1   0.5d0    0.073d0    0.080d0   0.d0   0.d0   0.d0   0.d0   0.d0 
      1  1  1  1   0.5d0    0.071d0    0.082d0   0.d0   0.d0   0.d0   0.d0   0.d0 
      1  1  1  1   0.5d0    0.069d0    0.084d0   0.d0   0.d0   0.d0   0.d0   0.d0 
      1  1  1  1   0.5d0    0.067d0    0.085d0   0.d0   0.d0   0.d0   0.d0   0.d0 
      1  1  1  1   0.5d0    0.064d0    0.087d0   0.d0   0.d0   0.d0   0.d0   0.d0 
      1  1  1  1   0.5d0    0.062d0    0.089d0   0.d0   0.d0   0.d0   0.d0   0.d0 
      1  1  1  1   0.5d0    0.060d0    0.090d0   0.d0   0.d0   0.d0   0.d0   0.d0 
      1  1  1  1   0.5d0    0.058d0    0.092d0   0.d0   0.d0   0.d0   0.d0   0.d0 
      1  1  1  1   0.5d0    0.055d0    0.093d0   0.d0   0.d0   0.d0   0.d0   0.d0 
      1  1  1  1   0.5d0    0.053d0    0.094d0   0.d0   0.d0   0.d0   0.d0   0.d0 
      1  1  1  1   0.5d0    0.051d0    0.096d0   0.d0   0.d0   0.d0   0.d0   0.d0 
      1  1  1  1   0.5d0    0.048d0    0.097d0   0.d0   0.d0   0.d0   0.d0   0.d0 
      1  1  1  1   0.5d0    0.046d0    0.098d0   0.d0   0.d0   0.d0   0.d0   0.d0 
      1  1  1  1   0.5d0    0.043d0    0.099d0   0.d0   0.d0   0.d0   0.d0   0.d0 
      1  1  1  1   0.5d0    0.041d0    0.100d0   0.d0   0.d0   0.d0   0.d0   0.d0 
      1  1  1  1   0.5d0    0.038d0    0.101d0   0.d0   0.d0   0.d0   0.d0   0.d0 
      1  1  1  1   0.5d0    0.036d0    0.102d0   0.d0   0.d0   0.d0   0.d0   0.d0 
      1  1  1  1   0.5d0    0.033d0    0.103d0   0.d0   0.d0   0.d0   0.d0   0.d0 
      1  1  1  1   0.5d0    0.030d0    0.104d0   0.d0   0.d0   0.d0   0.d0   0.d0 
      1  1  1  1   0.5d0    0.028d0    0.105d0   0.d0   0.d0   0.d0   0.d0   0.d0 
      1  1  1  1   0.5d0    0.025d0    0.105d0   0.d0   0.d0   0.d0   0.d0   0.d0 
      1  1  1  1   0.5d0    0.022d0    0.106d0   0.d0   0.d0   0.d0   0.d0   0.d0 
      1  1  1  1   0.5d0    0.020d0    0.106d0   0.d0   0.d0   0.d0   0.d0   0.d0 
      1  1  1  1   0.5d0    0.017d0    0.107d0   0.d0   0.d0   0.d0   0.d0   0.d0 
      1  1  1  1   0.5d0    0.014d0    0.107d0   0.d0   0.d0   0.d0   0.d0   0.d0 
      1  1  1  1   0.5d0    0.012d0    0.108d0   0.d0   0.d0   0.d0   0.d0   0.d0 
      1  1  1  1   0.5d0    0.009d0    0.108d0   0.d0   0.d0   0.d0   0.d0   0.d0 
      1  1  1  1   0.5d0    0.006d0    0.108d0   0.d0   0.d0   0.d0   0.d0   0.d0 
      1  1  1  1   0.5d0    0.003d0    0.108d0   0.d0   0.d0   0.d0   0.d0   0.d0 
      1  1  1  1   0.5d0    0.001d0    0.108d0   0.d0   0.d0   0.d0   0.d0   0.d0 
      1  1  1  1   0.5d0   -0.002d0    0.108d0   0.d0   0.d0   0.d0   0.d0   0.d0 
      1  1  1  1   0.5d0   -0.005d0    0.108d0   0.d0   0.d0   0.d0   0.d0   0.d0 
      1  1  1  1   0.5d0   -0.008d0    0.108d0   0.d0   0.d0   0.d0   0.d0   0.d0 
      1  1  1  1   0.5d0   -0.010d0    0.108d0   0.d0   0.d0   0.d0   0.d0   0.d0 
      1  1  1  1   0.5d0   -0.013d0    0.107d0   0.d0   0.d0   0.d0   0.d0   0.d0 
      1  1  1  1   0.5d0   -0.016d0    0.107d0   0.d0   0.d0   0.d0   0.d0   0.d0 
      1  1  1  1   0.5d0   -0.018d0    0.107d0   0.d0   0.d0   0.d0   0.d0   0.d0 
      1  1  1  1   0.5d0   -0.021d0    0.106d0   0.d0   0.d0   0.d0   0.d0   0.d0 
      1  1  1  1   0.5d0   -0.024d0    0.106d0   0.d0   0.d0   0.d0   0.d0   0.d0 
      1  1  1  1   0.5d0   -0.026d0    0.105d0   0.d0   0.d0   0.d0   0.d0   0.d0 
      1  1  1  1   0.5d0   -0.029d0    0.104d0   0.d0   0.d0   0.d0   0.d0   0.d0 
      1  1  1  1   0.5d0   -0.032d0    0.103d0   0.d0   0.d0   0.d0   0.d0   0.d0 
      1  1  1  1   0.5d0   -0.034d0    0.103d0   0.d0   0.d0   0.d0   0.d0   0.d0 
      1  1  1  1   0.5d0   -0.037d0    0.102d0   0.d0   0.d0   0.d0   0.d0   0.d0 
      1  1  1  1   0.5d0   -0.039d0    0.101d0   0.d0   0.d0   0.d0   0.d0   0.d0 
      1  1  1  1   0.5d0   -0.042d0    0.100d0   0.d0   0.d0   0.d0   0.d0   0.d0 
      1  1  1  1   0.5d0   -0.044d0    0.099d0   0.d0   0.d0   0.d0   0.d0   0.d0 
      1  1  1  1   0.5d0   -0.047d0    0.098d0   0.d0   0.d0   0.d0   0.d0   0.d0 
      1  1  1  1   0.5d0   -0.049d0    0.096d0   0.d0   0.d0   0.d0   0.d0   0.d0 
      1  1  1  1   0.5d0   -0.052d0    0.095d0   0.d0   0.d0   0.d0   0.d0   0.d0 
      1  1  1  1   0.5d0   -0.054d0    0.094d0   0.d0   0.d0   0.d0   0.d0   0.d0 
      1  1  1  1   0.5d0   -0.056d0    0.092d0   0.d0   0.d0   0.d0   0.d0   0.d0 
      1  1  1  1   0.5d0   -0.059d0    0.091d0   0.d0   0.d0   0.d0   0.d0   0.d0 
      1  1  1  1   0.5d0   -0.061d0    0.089d0   0.d0   0.d0   0.d0   0.d0   0.d0 
      1  1  1  1   0.5d0   -0.063d0    0.088d0   0.d0   0.d0   0.d0   0.d0   0.d0 
      1  1  1  1   0.5d0   -0.065d0    0.086d0   0.d0   0.d0   0.d0   0.d0   0.d0 
      1  1  1  1   0.5d0   -0.068d0    0.084d0   0.d0   0.d0   0.d0   0.d0   0.d0 
      1  1  1  1   0.5d0   -0.070d0    0.083d0   0.d0   0.d0   0.d0   0.d0   0.d0 
      1  1  1  1   0.5d0   -0.072d0    0.081d0   0.d0   0.d0   0.d0   0.d0   0.d0 
      1  1  1  1   0.5d0   -0.074d0    0.079d0   0.d0   0.d0   0.d0   0.d0   0.d0 
      1  1  1  1   0.5d0   -0.076d0    0.077d0   0.d0   0.d0   0.d0   0.d0   0.d0 
      1  1  1  1   0.5d0   -0.078d0    0.075d0   0.d0   0.d0   0.d0   0.d0   0.d0 
      1  1  1  1   0.5d0   -0.080d0    0.073d0   0.d0   0.d0   0.d0   0.d0   0.d0 
      1  1  1  1   0.5d0   -0.081d0    0.071d0   0.d0   0.d0   0.d0   0.d0   0.d0 
      1  1  1  1   0.5d0   -0.083d0    0.069d0   0.d0   0.d0   0.d0   0.d0   0.d0 
      1  1  1  1   0.5d0   -0.085d0    0.067d0   0.d0   0.d0   0.d0   0.d0   0.d0 
      1  1  1  1   0.5d0   -0.087d0    0.065d0   0.d0   0.d0   0.d0   0.d0   0.d0 
      1  1  1  1   0.5d0   -0.088d0    0.063d0   0.d0   0.d0   0.d0   0.d0   0.d0 
      1  1  1  1   0.5d0   -0.090d0    0.060d0   0.d0   0.d0   0.d0   0.d0   0.d0 
      1  1  1  1   0.5d0   -0.091d0    0.058d0   0.d0   0.d0   0.d0   0.d0   0.d0 
      1  1  1  1   0.5d0   -0.093d0    0.056d0   0.d0   0.d0   0.d0   0.d0   0.d0 
      1  1  1  1   0.5d0   -0.094d0    0.054d0   0.d0   0.d0   0.d0   0.d0   0.d0 
      1  1  1  1   0.5d0   -0.095d0    0.051d0   0.d0   0.d0   0.d0   0.d0   0.d0 
      1  1  1  1   0.5d0   -0.097d0    0.049d0   0.d0   0.d0   0.d0   0.d0   0.d0 
      1  1  1  1   0.5d0   -0.098d0    0.046d0   0.d0   0.d0   0.d0   0.d0   0.d0 
      1  1  1  1   0.5d0   -0.099d0    0.044d0   0.d0   0.d0   0.d0   0.d0   0.d0 
      1  1  1  1   0.5d0   -0.100d0    0.041d0   0.d0   0.d0   0.d0   0.d0   0.d0 
      1  1  1  1   0.5d0   -0.101d0    0.039d0   0.d0   0.d0   0.d0   0.d0   0.d0 
      1  1  1  1   0.5d0   -0.102d0    0.036d0   0.d0   0.d0   0.d0   0.d0   0.d0 
      1  1  1  1   0.5d0   -0.103d0    0.034d0   0.d0   0.d0   0.d0   0.d0   0.d0 
      1  1  1  1   0.5d0   -0.104d0    0.031d0   0.d0   0.d0   0.d0   0.d0   0.d0 
      1  1  1  1   0.5d0   -0.104d0    0.028d0   0.d0   0.d0   0.d0   0.d0   0.d0 
      1  1  1  1   0.5d0   -0.105d0    0.026d0   0.d0   0.d0   0.d0   0.d0   0.d0 
      1  1  1  1   0.5d0   -0.106d0    0.023d0   0.d0   0.d0   0.d0   0.d0   0.d0 
      1  1  1  1   0.5d0   -0.106d0    0.020d0   0.d0   0.d0   0.d0   0.d0   0.d0 
      1  1  1  1   0.5d0   -0.107d0    0.018d0   0.d0   0.d0   0.d0   0.d0   0.d0 
      1  1  1  1   0.5d0   -0.107d0    0.015d0   0.d0   0.d0   0.d0   0.d0   0.d0 
      1  1  1  1   0.5d0   -0.108d0    0.012d0   0.d0   0.d0   0.d0   0.d0   0.d0 
      1  1  1  1   0.5d0   -0.108d0    0.010d0   0.d0   0.d0   0.d0   0.d0   0.d0 
      1  1  1  1   0.5d0   -0.108d0    0.007d0   0.d0   0.d0   0.d0   0.d0   0.d0 
      1  1  1  1   0.5d0   -0.108d0    0.004d0   0.d0   0.d0   0.d0   0.d0   0.d0 
      1  1  1  1   0.5d0   -0.108d0    0.001d0   0.d0   0.d0   0.d0   0.d0   0.d0 
      1  1  1  1   0.5d0   -0.108d0   -0.001d0   0.d0   0.d0   0.d0   0.d0   0.d0 
      1  1  1  1   0.5d0   -0.108d0   -0.004d0   0.d0   0.d0   0.d0   0.d0   0.d0 
      1  1  1  1   0.5d0   -0.108d0   -0.007d0   0.d0   0.d0   0.d0   0.d0   0.d0 
      1  1  1  1   0.5d0   -0.108d0   -0.010d0   0.d0   0.d0   0.d0   0.d0   0.d0 
      1  1  1  1   0.5d0   -0.108d0   -0.012d0   0.d0   0.d0   0.d0   0.d0   0.d0 
      1  1  1  1   0.5d0   -0.107d0   -0.015d0   0.d0   0.d0   0.d0   0.d0   0.d0 
      1  1  1  1   0.5d0   -0.107d0   -0.018d0   0.d0   0.d0   0.d0   0.d0   0.d0 
      1  1  1  1   0.5d0   -0.106d0   -0.020d0   0.d0   0.d0   0.d0   0.d0   0.d0 
      1  1  1  1   0.5d0   -0.106d0   -0.023d0   0.d0   0.d0   0.d0   0.d0   0.d0 
      1  1  1  1   0.5d0   -0.105d0   -0.026d0   0.d0   0.d0   0.d0   0.d0   0.d0 
      1  1  1  1   0.5d0   -0.104d0   -0.028d0   0.d0   0.d0   0.d0   0.d0   0.d0 
      1  1  1  1   0.5d0   -0.104d0   -0.031d0   0.d0   0.d0   0.d0   0.d0   0.d0 
      1  1  1  1   0.5d0   -0.103d0   -0.034d0   0.d0   0.d0   0.d0   0.d0   0.d0 
      1  1  1  1   0.5d0   -0.102d0   -0.036d0   0.d0   0.d0   0.d0   0.d0   0.d0 
      1  1  1  1   0.5d0   -0.101d0   -0.039d0   0.d0   0.d0   0.d0   0.d0   0.d0 
      1  1  1  1   0.5d0   -0.100d0   -0.041d0   0.d0   0.d0   0.d0   0.d0   0.d0 
      1  1  1  1   0.5d0   -0.099d0   -0.044d0   0.d0   0.d0   0.d0   0.d0   0.d0 
      1  1  1  1   0.5d0   -0.098d0   -0.046d0   0.d0   0.d0   0.d0   0.d0   0.d0 
      1  1  1  1   0.5d0   -0.097d0   -0.049d0   0.d0   0.d0   0.d0   0.d0   0.d0 
      1  1  1  1   0.5d0   -0.095d0   -0.051d0   0.d0   0.d0   0.d0   0.d0   0.d0 
      1  1  1  1   0.5d0   -0.094d0   -0.054d0   0.d0   0.d0   0.d0   0.d0   0.d0 
      1  1  1  1   0.5d0   -0.093d0   -0.056d0   0.d0   0.d0   0.d0   0.d0   0.d0 
      1  1  1  1   0.5d0   -0.091d0   -0.058d0   0.d0   0.d0   0.d0   0.d0   0.d0 
      1  1  1  1   0.5d0   -0.090d0   -0.060d0   0.d0   0.d0   0.d0   0.d0   0.d0 
      1  1  1  1   0.5d0   -0.088d0   -0.063d0   0.d0   0.d0   0.d0   0.d0   0.d0 
      1  1  1  1   0.5d0   -0.087d0   -0.065d0   0.d0   0.d0   0.d0   0.d0   0.d0 
      1  1  1  1   0.5d0   -0.085d0   -0.067d0   0.d0   0.d0   0.d0   0.d0   0.d0 
      1  1  1  1   0.5d0   -0.083d0   -0.069d0   0.d0   0.d0   0.d0   0.d0   0.d0 
      1  1  1  1   0.5d0   -0.081d0   -0.071d0   0.d0   0.d0   0.d0   0.d0   0.d0 
      1  1  1  1   0.5d0   -0.080d0   -0.073d0   0.d0   0.d0   0.d0   0.d0   0.d0 
      1  1  1  1   0.5d0   -0.078d0   -0.075d0   0.d0   0.d0   0.d0   0.d0   0.d0 
      1  1  1  1   0.5d0   -0.076d0   -0.077d0   0.d0   0.d0   0.d0   0.d0   0.d0 
      1  1  1  1   0.5d0   -0.074d0   -0.079d0   0.d0   0.d0   0.d0   0.d0   0.d0 
      1  1  1  1   0.5d0   -0.072d0   -0.081d0   0.d0   0.d0   0.d0   0.d0   0.d0 
      1  1  1  1   0.5d0   -0.070d0   -0.083d0   0.d0   0.d0   0.d0   0.d0   0.d0 
      1  1  1  1   0.5d0   -0.068d0   -0.084d0   0.d0   0.d0   0.d0   0.d0   0.d0 
      1  1  1  1   0.5d0   -0.065d0   -0.086d0   0.d0   0.d0   0.d0   0.d0   0.d0 
[...]
      1  1  1  1   0.5d0   -0.104d0    0.171d0   20.d0   0.d0   0.d0   0.d0   0.d0 
      1  1  1  1   0.5d0   -0.109d0    0.168d0   20.d0   0.d0   0.d0   0.d0   0.d0 
      1  1  1  1   0.5d0   -0.113d0    0.165d0   20.d0   0.d0   0.d0   0.d0   0.d0 
      1  1  1  1   0.5d0   -0.117d0    0.162d0   20.d0   0.d0   0.d0   0.d0   0.d0 
      1  1  1  1   0.5d0   -0.121d0    0.159d0   20.d0   0.d0   0.d0   0.d0   0.d0 
      1  1  1  1   0.5d0   -0.125d0    0.156d0   20.d0   0.d0   0.d0   0.d0   0.d0 
      1  1  1  1   0.5d0   -0.129d0    0.153d0   20.d0   0.d0   0.d0   0.d0   0.d0 
      1  1  1  1   0.5d0   -0.133d0    0.150d0   20.d0   0.d0   0.d0   0.d0   0.d0 
      1  1  1  1   0.5d0   -0.136d0    0.146d0   20.d0   0.d0   0.d0   0.d0   0.d0 
      1  1  1  1   0.5d0   -0.140d0    0.143d0   20.d0   0.d0   0.d0   0.d0   0.d0 
      1  1  1  1   0.5d0   -0.144d0    0.139d0   20.d0   0.d0   0.d0   0.d0   0.d0 
      1  1  1  1   0.5d0   -0.147d0    0.136d0   20.d0   0.d0   0.d0   0.d0   0.d0 
      1  1  1  1   0.5d0   -0.150d0    0.132d0   20.d0   0.d0   0.d0   0.d0   0.d0 
      1  1  1  1   0.5d0   -0.154d0    0.128d0   20.d0   0.d0   0.d0   0.d0   0.d0 
      1  1  1  1   0.5d0   -0.157d0    0.124d0   20.d0   0.d0   0.d0   0.d0   0.d0 
      1  1  1  1   0.5d0   -0.160d0    0.120d0   20.d0   0.d0   0.d0   0.d0   0.d0 
      1  1  1  1   0.5d0   -0.163d0    0.116d0   20.d0   0.d0   0.d0   0.d0   0.d0 
      1  1  1  1   0.5d0   -0.166d0    0.112d0   20.d0   0.d0   0.d0   0.d0   0.d0 
      1  1  1  1   0.5d0   -0.169d0    0.108d0   20.d0   0.d0   0.d0   0.d0   0.d0 
      1  1  1  1   0.5d0   -0.171d0    0.103d0   20.d0   0.d0   0.d0   0.d0   0.d0 
      1  1  1  1   0.5d0   -0.174d0    0.099d0   20.d0   0.d0   0.d0   0.d0   0.d0 
      1  1  1  1   0.5d0   -0.176d0    0.094d0   20.d0   0.d0   0.d0   0.d0   0.d0 
      1  1  1  1   0.5d0   -0.179d0    0.090d0   20.d0   0.d0   0.d0   0.d0   0.d0 
      1  1  1  1   0.5d0   -0.181d0    0.085d0   20.d0   0.d0   0.d0   0.d0   0.d0 
      1  1  1  1   0.5d0   -0.183d0    0.081d0   20.d0   0.d0   0.d0   0.d0   0.d0 
      1  1  1  1   0.5d0   -0.185d0    0.076d0   20.d0   0.d0   0.d0   0.d0   0.d0 
      1  1  1  1   0.5d0   -0.187d0    0.072d0   20.d0   0.d0   0.d0   0.d0   0.d0 
      1  1  1  1   0.5d0   -0.189d0    0.067d0   20.d0   0.d0   0.d0   0.d0   0.d0 
      1  1  1  1   0.5d0   -0.190d0    0.062d0   20.d0   0.d0   0.d0   0.d0   0.d0 
      1  1  1  1   0.5d0   -0.192d0    0.057d0   20.d0   0.d0   0.d0   0.d0   0.d0 
      1  1  1  1   0.5d0   -0.193d0    0.052d0   20.d0   0.d0   0.d0   0.d0   0.d0 
      1  1  1  1   0.5d0   -0.194d0    0.047d0   20.d0   0.d0   0.d0   0.d0   0.d0 
      1  1  1  1   0.5d0   -0.195d0    0.043d0   20.d0   0.d0   0.d0   0.d0   0.d0 
      1  1  1  1   0.5d0   -0.196d0    0.038d0   20.d0   0.d0   0.d0   0.d0   0.d0 
      1  1  1  1   0.5d0   -0.197d0    0.033d0   20.d0   0.d0   0.d0   0.d0   0.d0 
      1  1  1  1   0.5d0   -0.198d0    0.028d0   20.d0   0.d0   0.d0   0.d0   0.d0 
      1  1  1  1   0.5d0   -0.199d0    0.023d0   20.d0   0.d0   0.d0   0.d0   0.d0 
      1  1  1  1   0.5d0   -0.199d0    0.018d0   20.d0   0.d0   0.d0   0.d0   0.d0 
      1  1  1  1   0.5d0   -0.200d0    0.013d0   20.d0   0.d0   0.d0   0.d0   0.d0 
      1  1  1  1   0.5d0   -0.200d0    0.008d0   20.d0   0.d0   0.d0   0.d0   0.d0 
      1  1  1  1   0.5d0   -0.200d0    0.003d0   20.d0   0.d0   0.d0   0.d0   0.d0 
      1  1  1  1   0.5d0   -0.200d0   -0.003d0   20.d0   0.d0   0.d0   0.d0   0.d0 
      1  1  1  1   0.5d0   -0.200d0   -0.008d0   20.d0   0.d0   0.d0   0.d0   0.d0 
      1  1  1  1   0.5d0   -0.200d0   -0.013d0   20.d0   0.d0   0.d0   0.d0   0.d0 
      1  1  1  1   0.5d0   -0.199d0   -0.018d0   20.d0   0.d0   0.d0   0.d0   0.d0 
      1  1  1  1   0.5d0   -0.199d0   -0.023d0   20.d0   0.d0   0.d0   0.d0   0.d0 
      1  1  1  1   0.5d0   -0.198d0   -0.028d0   20.d0   0.d0   0.d0   0.d0   0.d0 
      1  1  1  1   0.5d0   -0.197d0   -0.033d0   20.d0   0.d0   0.d0   0.d0   0.d0 
      1  1  1  1   0.5d0   -0.196d0   -0.038d0   20.d0   0.d0   0.d0   0.d0   0.d0 
      1  1  1  1   0.5d0   -0.195d0   -0.043d0   20.d0   0.d0   0.d0   0.d0   0.d0 
      1  1  1  1   0.5d0   -0.194d0   -0.047d0   20.d0   0.d0   0.d0   0.d0   0.d0 
      1  1  1  1   0.5d0   -0.193d0   -0.052d0   20.d0   0.d0   0.d0   0.d0   0.d0 
      1  1  1  1   0.5d0   -0.192d0   -0.057d0   20.d0   0.d0   0.d0   0.d0   0.d0 
      1  1  1  1   0.5d0   -0.190d0   -0.062d0   20.d0   0.d0   0.d0   0.d0   0.d0 
      1  1  1  1   0.5d0   -0.189d0   -0.067d0   20.d0   0.d0   0.d0   0.d0   0.d0 
      1  1  1  1   0.5d0   -0.187d0   -0.072d0   20.d0   0.d0   0.d0   0.d0   0.d0 
      1  1  1  1   0.5d0   -0.185d0   -0.076d0   20.d0   0.d0   0.d0   0.d0   0.d0 
      1  1  1  1   0.5d0   -0.183d0   -0.081d0   20.d0   0.d0   0.d0   0.d0   0.d0 
      1  1  1  1   0.5d0   -0.181d0   -0.085d0   20.d0   0.d0   0.d0   0.d0   0.d0 
      1  1  1  1   0.5d0   -0.179d0   -0.090d0   20.d0   0.d0   0.d0   0.d0   0.d0 
      1  1  1  1   0.5d0   -0.176d0   -0.094d0   20.d0   0.d0   0.d0   0.d0   0.d0 
      1  1  1  1   0.5d0   -0.174d0   -0.099d0   20.d0   0.d0   0.d0   0.d0   0.d0 
      1  1  1  1   0.5d0   -0.171d0   -0.103d0   20.d0   0.d0   0.d0   0.d0   0.d0 
      1  1  1  1   0.5d0   -0.169d0   -0.108d0   20.d0   0.d0   0.d0   0.d0   0.d0 
      1  1  1  1   0.5d0   -0.166d0   -0.112d0   20.d0   0.d0   0.d0   0.d0   0.d0 
      1  1  1  1   0.5d0   -0.163d0   -0.116d0   20.d0   0.d0   0.d0   0.d0   0.d0 
      1  1  1  1   0.5d0   -0.160d0   -0.120d0   20.d0   0.d0   0.d0   0.d0   0.d0 
      1  1  1  1   0.5d0   -0.157d0   -0.124d0   20.d0   0.d0   0.d0   0.d0   0.d0 
      1  1  1  1   0.5d0   -0.154d0   -0.128d0   20.d0   0.d0   0.d0   0.d0   0.d0 
      1  1  1  1   0.5d0   -0.150d0   -0.132d0   20.d0   0.d0   0.d0   0.d0   0.d0 
      1  1  1  1   0.5d0   -0.147d0   -0.136d0   20.d0   0.d0   0.d0   0.d0   0.d0 
      1  1  1  1   0.5d0   -0.144d0   -0.139d0   20.d0   0.d0   0.d0   0.d0   0.d0 
      1  1  1  1   0.5d0   -0.140d0   -0.143d0   20.d0   0.d0   0.d0   0.d0   0.d0 
      1  1  1  1   0.5d0   -0.136d0   -0.146d0   20.d0   0.d0   0.d0   0.d0   0.d0 
      1  1  1  1   0.5d0   -0.133d0   -0.150d0   20.d0   0.d0   0.d0   0.d0   0.d0 
      1  1  1  1   0.5d0   -0.129d0   -0.153d0   20.d0   0.d0   0.d0   0.d0   0.d0 
      1  1  1  1   0.5d0   -0.125d0   -0.156d0   20.d0   0.d0   0.d0   0.d0   0.d0 
      1  1  1  1   0.5d0   -0.121d0   -0.159d0   20.d0   0.d0   0.d0   0.d0   0.d0 
      1  1  1  1   0.5d0   -0.117d0   -0.162d0   20.d0   0.d0   0.d0   0.d0   0.d0 
      1  1  1  1   0.5d0   -0.113d0   -0.165d0   20.d0   0.d0   0.d0   0.d0   0.d0 
      1  1  1  1   0.5d0   -0.109d0   -0.168d0   20.d0   0.d0   0.d0   0.d0   0.d0 
      1  1  1  1   0.5d0   -0.104d0   -0.171d0   20.d0   0.d0   0.d0   0.d0   0.d0 
      1  1  1  1   0.5d0   -0.100d0   -0.173d0   20.d0   0.d0   0.d0   0.d0   0.d0 
      1  1  1  1   0.5d0   -0.096d0   -0.176d0   20.d0   0.d0   0.d0   0.d0   0.d0 
      1  1  1  1   0.5d0   -0.091d0   -0.178d0   20.d0   0.d0   0.d0   0.d0   0.d0 
      1  1  1  1   0.5d0   -0.087d0   -0.180d0   20.d0   0.d0   0.d0   0.d0   0.d0 
      1  1  1  1   0.5d0   -0.082d0   -0.182d0   20.d0   0.d0   0.d0   0.d0   0.d0 
      1  1  1  1   0.5d0   -0.077d0   -0.184d0   20.d0   0.d0   0.d0   0.d0   0.d0 
      1  1  1  1   0.5d0   -0.073d0   -0.186d0   20.d0   0.d0   0.d0   0.d0   0.d0 
      1  1  1  1   0.5d0   -0.068d0   -0.188d0   20.d0   0.d0   0.d0   0.d0   0.d0 
      1  1  1  1   0.5d0   -0.063d0   -0.190d0   20.d0   0.d0   0.d0   0.d0   0.d0 
      1  1  1  1   0.5d0   -0.058d0   -0.191d0   20.d0   0.d0   0.d0   0.d0   0.d0 
      1  1  1  1   0.5d0   -0.054d0   -0.193d0   20.d0   0.d0   0.d0   0.d0   0.d0 
      1  1  1  1   0.5d0   -0.049d0   -0.194d0   20.d0   0.d0   0.d0   0.d0   0.d0 
      1  1  1  1   0.5d0   -0.044d0   -0.195d0   20.d0   0.d0   0.d0   0.d0   0.d0 
      1  1  1  1   0.5d0   -0.039d0   -0.196d0   20.d0   0.d0   0.d0   0.d0   0.d0 
      1  1  1  1   0.5d0   -0.034d0   -0.197d0   20.d0   0.d0   0.d0   0.d0   0.d0 
      1  1  1  1   0.5d0   -0.029d0   -0.198d0   20.d0   0.d0   0.d0   0.d0   0.d0 
      1  1  1  1   0.5d0   -0.024d0   -0.199d0   20.d0   0.d0   0.d0   0.d0   0.d0 
      1  1  1  1   0.5d0   -0.019d0   -0.199d0   20.d0   0.d0   0.d0   0.d0   0.d0 
      1  1  1  1   0.5d0   -0.014d0   -0.200d0   20.d0   0.d0   0.d0   0.d0   0.d0 
      1  1  1  1   0.5d0   -0.009d0   -0.200d0   20.d0   0.d0   0.d0   0.d0   0.d0 
      1  1  1  1   0.5d0   -0.004d0   -0.200d0   20.d0   0.d0   0.d0   0.d0   0.d0 
      1  1  1  1   0.5d0    0.001d0   -0.200d0   20.d0   0.d0   0.d0   0.d0   0.d0 
      1  1  1  1   0.5d0    0.006d0   -0.200d0   20.d0   0.d0   0.d0   0.d0   0.d0 
      1  1  1  1   0.5d0    0.011d0   -0.200d0   20.d0   0.d0   0.d0   0.d0   0.d0 
      1  1  1  1   0.5d0    0.016d0   -0.199d0   20.d0   0.d0   0.d0   0.d0   0.d0 
      1  1  1  1   0.5d0    0.021d0   -0.199d0   20.d0   0.d0   0.d0   0.d0   0.d0 
      1  1  1  1   0.5d0    0.026d0   -0.198d0   20.d0   0.d0   0.d0   0.d0   0.d0 
      1  1  1  1   0.5d0    0.031d0   -0.198d0   20.d0   0.d0   0.d0   0.d0   0.d0 
      1  1  1  1   0.5d0    0.036d0   -0.197d0   20.d0   0.d0   0.d0   0.d0   0.d0 
      1  1  1  1   0.5d0    0.041d0   -0.196d0   20.d0   0.d0   0.d0   0.d0   0.d0 
      1  1  1  1   0.5d0    0.046d0   -0.195d0   20.d0   0.d0   0.d0   0.d0   0.d0 
      1  1  1  1   0.5d0    0.051d0   -0.193d0   20.d0   0.d0   0.d0   0.d0   0.d0 
      1  1  1  1   0.5d0    0.056d0   -0.192d0   20.d0   0.d0   0.d0   0.d0   0.d0 
      1  1  1  1   0.5d0    0.061d0   -0.191d0   20.d0   0.d0   0.d0   0.d0   0.d0 
      1  1  1  1   0.5d0    0.066d0   -0.189d0   20.d0   0.d0   0.d0   0.d0   0.d0 
      1  1  1  1   0.5d0    0.070d0   -0.187d0   20.d0   0.d0   0.d0   0.d0   0.d0 
      1  1  1  1   0.5d0    0.075d0   -0.185d0   20.d0   0.d0   0.d0   0.d0   0.d0 
      1  1  1  1   0.5d0    0.080d0   -0.183d0   20.d0   0.d0   0.d0   0.d0   0.d0 
      1  1  1  1   0.5d0    0.084d0   -0.181d0   20.d0   0.d0   0.d0   0.d0   0.d0 
      1  1  1  1   0.5d0    0.089d0   -0.179d0   20.d0   0.d0   0.d0   0.d0   0.d0 
      1  1  1  1   0.5d0    0.093d0   -0.177d0   20.d0   0.d0   0.d0   0.d0   0.d0 
      1  1  1  1   0.5d0    0.098d0   -0.174d0   20.d0   0.d0   0.d0   0.d0   0.d0 
      1  1  1  1   0.5d0    0.102d0   -0.172d0   20.d0   0.d0   0.d0   0.d0   0.d0 
      1  1  1  1   0.5d0    0.106d0   -0.169d0   20.d0   0.d0   0.d0   0.d0   0.d0 
      1  1  1  1   0.5d0    0.111d0   -0.167d0   20.d0   0.d0   0.d0   0.d0   0.d0 
      1  1  1  1   0.5d0    0.115d0   -0.164d0   20.d0   0.d0   0.d0   0.d0   0.d0 
      1  1  1  1   0.5d0    0.119d0   -0.161d0   20.d0   0.d0   0.d0   0.d0   0.d0 
      1  1  1  1   0.5d0    0.123d0   -0.158d0   20.d0   0.d0   0.d0   0.d0   0.d0 
      1  1  1  1   0.5d0    0.127d0   -0.155d0   20.d0   0.d0   0.d0   0.d0   0.d0 
      1  1  1  1   0.5d0    0.131d0   -0.151d0   20.d0   0.d0   0.d0   0.d0   0.d0 
      1  1  1  1   0.5d0    0.135d0   -0.148d0   20.d0   0.d0   0.d0   0.d0   0.d0 
      1  1  1  1   0.5d0    0.138d0   -0.145d0   20.d0   0.d0   0.d0   0.d0   0.d0 
      1  1  1  1   0.5d0    0.142d0   -0.141d0   20.d0   0.d0   0.d0   0.d0   0.d0 
      1  1  1  1   0.5d0    0.145d0   -0.137d0   20.d0   0.d0   0.d0   0.d0   0.d0 
      1  1  1  1   0.5d0    0.149d0   -0.134d0   20.d0   0.d0   0.d0   0.d0   0.d0 
      1  1  1  1   0.5d0    0.152d0   -0.130d0   20.d0   0.d0   0.d0   0.d0   0.d0 
      1  1  1  1   0.5d0    0.155d0   -0.126d0   20.d0   0.d0   0.d0   0.d0   0.d0 
      1  1  1  1   0.5d0    0.158d0   -0.122d0   20.d0   0.d0   0.d0   0.d0   0.d0 
      1  1  1  1   0.5d0    0.162d0   -0.118d0   20.d0   0.d0   0.d0   0.d0   0.d0 
      1  1  1  1   0.5d0    0.164d0   -0.114d0   20.d0   0.d0   0.d0   0.d0   0.d0 
      1  1  1  1   0.5d0    0.167d0   -0.110d0   20.d0   0.d0   0.d0   0.d0   0.d0 
      1  1  1  1   0.5d0    0.170d0   -0.105d0   20.d0   0.d0   0.d0   0.d0   0.d0 
      1  1  1  1   0.5d0    0.173d0   -0.101d0   20.d0   0.d0   0.d0   0.d0   0.d0 
      1  1  1  1   0.5d0    0.175d0   -0.097d0   20.d0   0.d0   0.d0   0.d0   0.d0 
      1  1  1  1   0.5d0    0.177d0   -0.092d0   20.d0   0.d0   0.d0   0.d0   0.d0 
      1  1  1  1   0.5d0    0.180d0   -0.088d0   20.d0   0.d0   0.d0   0.d0   0.d0 
      1  1  1  1   0.5d0    0.182d0   -0.083d0   20.d0   0.d0   0.d0   0.d0   0.d0 
      1  1  1  1   0.5d0    0.184d0   -0.079d0   20.d0   0.d0   0.d0   0.d0   0.d0 
      1  1  1  1   0.5d0    0.186d0   -0.074d0   20.d0   0.d0   0.d0   0.d0   0.d0 
      1  1  1  1   0.5d0    0.188d0   -0.069d0   20.d0   0.d0   0.d0   0.d0   0.d0 
      1  1  1  1   0.5d0    0.189d0   -0.064d0   20.d0   0.d0   0.d0   0.d0   0.d0 
      1  1  1  1   0.5d0    0.191d0   -0.060d0   20.d0   0.d0   0.d0   0.d0   0.d0 
      1  1  1  1   0.5d0    0.192d0   -0.055d0   20.d0   0.d0   0.d0   0.d0   0.d0 
      1  1  1  1   0.5d0    0.194d0   -0.050d0   20.d0   0.d0   0.d0   0.d0   0.d0 
      1  1  1  1   0.5d0    0.195d0   -0.045d0   20.d0   0.d0   0.d0   0.d0   0.d0 
      1  1  1  1   0.5d0    0.196d0   -0.040d0   20.d0   0.d0   0.d0   0.d0   0.d0 
      1  1  1  1   0.5d0    0.197d0   -0.035d0   20.d0   0.d0   0.d0   0.d0   0.d0 
      1  1  1  1   0.5d0    0.198d0   -0.030d0   20.d0   0.d0   0.d0   0.d0   0.d0 
      1  1  1  1   0.5d0    0.198d0   -0.025d0   20.d0   0.d0   0.d0   0.d0   0.d0 
      1  1  1  1   0.5d0    0.199d0   -0.020d0   20.d0   0.d0   0.d0   0.d0   0.d0 
      1  1  1  1   0.5d0    0.199d0   -0.015d0   20.d0   0.d0   0.d0   0.d0   0.d0 
      1  1  1  1   0.5d0    0.200d0   -0.010d0   20.d0   0.d0   0.d0   0.d0   0.d0 
      1  1  1  1   0.5d0    0.200d0   -0.005d0   20.d0   0.d0   0.d0   0.d0   0.d0 
      1  1  1  1   0.5d0    0.200d0   -0.000d0   20.d0   0.d0   0.d0   0.d0   0.d0 

!
!  GLOSSARY:
!  =========
!
!  This input file provides the initial locations of the float trajectories
!  to compute.
!
!------------------------------------------------------------------------------
! Control Switches.
!------------------------------------------------------------------------------
!
! Lfloats   Switch to control the computation of floats trajectories within
!             nested and/or multiple connected grids. Ngrids values are
!             expected. By default this switch is set to TRUE in "mod_scalars"
!             for all grids when the CPP option FLOATS is activated. The
!             USER can control which grid to process by turning on/off this
!             switch.
!
! Fprint    Switch to control the printing of floats positions to standard
!             output file. This switch can be used to turn off the printing
!             of information when thousands of floats are released.  This
!             information is still in output floats NetCDF file.
!
! FRREC     Flag to indicate re-start from a previous solution.  Use
!             FRREC=0 for new solutions. In a re-start solution, FRREC
!             is the time index in the floats NetCDF file assigned for
!             initialization.  If FRREC is negative (say FRREC=-1), the
!             floats will re-start from the most recent time record.
!             That is, the initialization record is assigned internally.
!
!------------------------------------------------------------------------------
! Biological behavior.
!------------------------------------------------------------------------------
!
! FBIONAM   If applicable, input script file name containing biological floats
!              behavior model parameters.
!
!------------------------------------------------------------------------------
! Number of floats.
!------------------------------------------------------------------------------
!
!  NFLOATS   Number of floats to release in each nested grid.  Provide
!              the exact number of floats.  These values are used to
!              dynamically allocate the arrays in FLOATS array structure.
!
!------------------------------------------------------------------------------
! Initial float location KEYWORDS.  The model variable name is not used as
! keyword in some parameters.  However, it namce is provided in brackets.
!------------------------------------------------------------------------------
!
!  G         Nested grid number [ng].
!
!  C         Initial horizontal location coordinate type [Fcoor]:
!
!              Fcoor = 0,  rho grid units
!                             0.5 =< Fx0 =< Lm(ng)+0.5,
!                             0.5 =< Fy0 =< Mm(ng)+0.5
!
!              Fcoor = 1,  Fx0 is longitude (west values are negative).
!                          Fy0 is latitude (south values are negative).
!
!  T         Float trajectory type [Ftype]:
!
!              Ftype = 1,  3D Lagrangian floats.
!                          (flt_Lagran)
!
!              Ftype = 2,  Isobaric floats, p=g*(z+zeta)=constant.
!                          (flt_Isobar)
!
!              Ftype = 3,  Geopotential floats, constant depth.
!                          (flt_Geopot)
!
!  N         Number of floats [Fcount] to be released at the (Fx0,Fy0,Fz0)
!              location.  It must be equal or greater than one. If Fcount
!              is greater than one, a cluster distribution of floats
!              centered at (Fx0,Fy0,Fz0) is activated.
!
!              NOTE:  The total number of floats trajectories to compute
!              ====   must add to NFLOATS.
!
!  Ft0       Time (days) of float release after model initialization (real).
!
!  Fx0       Initial float x-location (real; grid units or longitude).
!
!  Fy0       Initial float y-location (real; grid units or latitude).
!
!  Fz0       Initial float z-location (real; vertical level or depth).
!              If Fz0 is less than or equal to zero, Fz0 is the initial
!              depth in meters.  Otherwise, if Fz0 is positive and
!
!                             0 < Fz0 =< N(ng),
!
!              Fz0 is the initial position relative to the W grid
!              (0 = bottom; N = surface).
!
!              If the float trajectory type is Isobaric (Ftype=2) or
!              Geopotential (Ftype=3), Fz0 must be a negative number
!              representing depth in meters. If the float type is
!              Lagrangian (Ftype=1), Fz0 can be a level (positive) or
!              a depth in meters (negative).
!
!              WARNING: If the depth in meters at particular horizontal
!                       is not bounded, the floats are released at the
!                       surface.
!
!  Fdt       Float cluster release time interval (real; days), only used
!              if Fcount > 1:
!
!              Fdt = 0,  Fcount floats will be deployed simultaneously
!                        with a distribution centered at (Fx0,Fy0,Fz0)
!                        and defined by (Fdx,Fdy,Fdz).
!
!              Fdt > 0,  a cluster of floats will be deployed from
!                        (Fx0,Fy0,Fz0) at Fdt intervals until Fcount
!                        floats are released.
!
!  Fdx       Cluster x-distribution parameter (real), only used if
!              Fcount > 1 and Fdt = 0.
!
!  Fdy       Cluster y-distribution parameter (real), only used if
!              Fcount > 1 and Fdt = 0.
!
!  Fdz       Cluster z-distribution parameter (real), only used if
!              Fcount > 1 and Fdt = 0.
!
!            NOTE:  the parameters (Fdx,Fdy,Fdz) can be used to specify
!            ====   any type of cluster distribution, for instance:
!
!                   * Lines of floats:
!
!                         Fdx > 0,  Fdy = 0,  Fdz = 0
!                         Fdx = 0,  Fdy > 0,  Fdz = 0
!                         Fdx = 0,  Fdy = 0,  Fdz > 0
!
!             The USER can use any of these parameters to design any
!             cluster distribution in routine "init_floats.F".
